MODEL 1
REMARK VINA RESULT:      -7.0      0.000      0.000
REMARK  Name = pdb/CHEMBL3897605.pdb
REMARK                            x       y       z     vdW  Elec       q    Type
REMARK                         _______ _______ _______ _____ _____    ______ ____
ROOT
ATOM      1  C   LIG    1      -31.670  74.056  29.733  0.00  0.00    +0.131 C 
ATOM      2  N   LIG    1      -31.491  75.315  29.296  0.00  0.00    -0.141 NA
ATOM      3  N   LIG    1      -32.651  75.641  28.677  0.00  0.00    -0.201 N 
ATOM      4  C   LIG    1      -33.457  74.518  28.478  0.00  0.00    +0.185 C 
ATOM      5  C   LIG    1      -32.913  73.542  29.279  0.00  0.00    +0.056 C 
ENDROOT
BRANCH   3   6
ATOM      6  C   LIG    1      -32.900  76.980  28.276  0.00  0.00    +0.052 A 
ATOM      7  C   LIG    1      -32.212  77.521  27.182  0.00  0.00    +0.025 A 
ATOM      8  C   LIG    1      -32.461  78.837  26.781  0.00  0.00    +0.002 A 
ATOM      9  C   LIG    1      -33.369  79.625  27.487  0.00  0.00    +0.000 A 
ATOM     10  C   LIG    1      -34.030  79.102  28.596  0.00  0.00    +0.002 A 
ATOM     11  C   LIG    1      -33.794  77.785  28.994  0.00  0.00    +0.025 A 
ENDBRANCH   3   6
BRANCH   4  12
ATOM     12  N   LIG    1      -34.534  74.396  27.588  0.00  0.00    -0.282 N 
ATOM     13  H   LIG    1      -34.306  74.229  26.613  0.00  0.00    +0.152 HD
ATOM     14  C   LIG    1      -35.914  74.372  27.988  0.00  0.00    +0.247 C 
ATOM     15  O   LIG    1      -36.231  74.475  29.170  0.00  0.00    -0.270 OA
BRANCH  14  16
ATOM     16  C   LIG    1      -36.955  74.145  26.954  0.00  0.00    +0.056 A 
ATOM     17  C   LIG    1      -37.178  72.915  26.342  0.00  0.00    +0.054 A 
ATOM     18 CL   LIG    1      -36.162  71.544  26.564  0.00  0.00    -0.083 Cl
ATOM     19  C   LIG    1      -38.217  72.777  25.424  0.00  0.00    +0.041 A 
ATOM     20  C   LIG    1      -38.977  73.883  25.018  0.00  0.00    +0.052 A 
ATOM     21 CL   LIG    1      -40.187  73.523  23.831  0.00  0.00    -0.083 Cl
ATOM     22  C   LIG    1      -38.701  75.175  25.514  0.00  0.00    +0.022 A 
ATOM     23  C   LIG    1      -37.716  75.258  26.532  0.00  0.00    +0.026 A 
BRANCH  22  24
ATOM     24  C   LIG    1      -39.333  76.419  24.993  0.00  0.00    +0.107 A 
ATOM     25  C   LIG    1      -38.698  77.277  24.085  0.00  0.00    +0.149 A 
ATOM     26  F   LIG    1      -37.461  77.026  23.629  0.00  0.00    -0.203 F 
ATOM     27  C   LIG    1      -39.355  78.406  23.605  0.00  0.00    +0.042 A 
ATOM     28  C   LIG    1      -40.662  78.644  24.005  0.00  0.00    +0.023 A 
ATOM     29  C   LIG    1      -41.237  77.757  24.898  0.00  0.00    +0.111 A 
ATOM     30  N   LIG    1      -40.594  76.683  25.415  0.00  0.00    -0.252 NA
ENDBRANCH  22  24
ENDBRANCH  14  16
ENDBRANCH   4  12
BRANCH   1  32
ATOM     31  N   LIG    1      -30.316  73.773  31.661  0.00  0.00    -0.243 NA
ATOM     32  C   LIG    1      -30.662  73.324  30.509  0.00  0.00    +0.233 C 
BRANCH  32  33
ATOM     33  O   LIG    1      -30.196  72.198  29.933  0.00  0.00    -0.491 OA
ATOM     34  H   LIG    1      -30.321  71.414  30.489  0.00  0.00    +0.294 HD
ENDBRANCH  32  33
BRANCH  31  35
ATOM     35  C   LIG    1      -29.375  73.035  32.497  0.00  0.00    +0.204 C 
BRANCH  35  40
ATOM     36  C   LIG    1      -24.802  74.739  31.376  0.00  0.00    +0.174 C 
ATOM     37  N   LIG    1      -26.009  73.976  31.552  0.00  0.00    -0.254 N 
ATOM     38  N   LIG    1      -26.098  72.726  31.066  0.00  0.00    -0.066 NA
ATOM     39  N   LIG    1      -27.308  72.268  31.360  0.00  0.00    -0.133 NA
ATOM     40  C   LIG    1      -27.981  73.251  32.040  0.00  0.00    +0.104 A 
ATOM     41  C   LIG    1      -27.160  74.351  32.172  0.00  0.00    +0.135 A 
ENDBRANCH  35  40
ENDBRANCH  31  35
ENDBRANCH   1  32
TORSDOF 8
ENDMDL
MODEL 2
REMARK VINA RESULT:      -6.7      4.352      6.277
REMARK  Name = pdb/CHEMBL3897605.pdb
REMARK                            x       y       z     vdW  Elec       q    Type
REMARK                         _______ _______ _______ _____ _____    ______ ____
ROOT
ATOM      1  C   LIG    1      -29.876  75.914  31.144  0.00  0.00    +0.131 C 
ATOM      2  N   LIG    1      -30.604  76.324  30.090  0.00  0.00    -0.141 NA
ATOM      3  N   LIG    1      -31.553  75.372  29.926  0.00  0.00    -0.201 N 
ATOM      4  C   LIG    1      -31.272  74.233  30.685  0.00  0.00    +0.185 C 
ATOM      5  C   LIG    1      -30.300  74.629  31.573  0.00  0.00    +0.056 C 
ENDROOT
BRANCH   3   6
ATOM      6  C   LIG    1      -32.636  75.582  29.031  0.00  0.00    +0.052 A 
ATOM      7  C   LIG    1      -32.607  76.666  28.143  0.00  0.00    +0.025 A 
ATOM      8  C   LIG    1      -33.669  76.871  27.257  0.00  0.00    +0.002 A 
ATOM      9  C   LIG    1      -34.771  76.018  27.275  0.00  0.00    +0.000 A 
ATOM     10  C   LIG    1      -34.818  74.959  28.179  0.00  0.00    +0.002 A 
ATOM     11  C   LIG    1      -33.756  74.743  29.059  0.00  0.00    +0.025 A 
ENDBRANCH   3   6
BRANCH   4  12
ATOM     12  N   LIG    1      -31.809  72.949  30.517  0.00  0.00    -0.282 N 
ATOM     13  H   LIG    1      -32.752  72.798  30.861  0.00  0.00    +0.152 HD
ATOM     14  C   LIG    1      -31.161  71.891  29.792  0.00  0.00    +0.247 C 
ATOM     15  O   LIG    1      -30.059  72.060  29.277  0.00  0.00    -0.270 OA
BRANCH  14  16
ATOM     16  C   LIG    1      -31.879  70.605  29.609  0.00  0.00    +0.056 A 
ATOM     17  C   LIG    1      -31.423  69.389  30.110  0.00  0.00    +0.054 A 
ATOM     18 CL   LIG    1      -29.882  69.181  30.844  0.00  0.00    -0.083 Cl
ATOM     19  C   LIG    1      -32.192  68.239  29.943  0.00  0.00    +0.041 A 
ATOM     20  C   LIG    1      -33.368  68.258  29.181  0.00  0.00    +0.052 A 
ATOM     21 CL   LIG    1      -34.158  66.722  29.043  0.00  0.00    -0.083 Cl
ATOM     22  C   LIG    1      -33.802  69.441  28.544  0.00  0.00    +0.022 A 
ATOM     23  C   LIG    1      -33.059  70.615  28.832  0.00  0.00    +0.026 A 
BRANCH  22  24
ATOM     24  C   LIG    1      -34.928  69.497  27.571  0.00  0.00    +0.107 A 
ATOM     25  C   LIG    1      -34.742  69.447  26.183  0.00  0.00    +0.149 A 
ATOM     26  F   LIG    1      -33.518  69.350  25.641  0.00  0.00    -0.203 F 
ATOM     27  C   LIG    1      -35.837  69.467  25.325  0.00  0.00    +0.042 A 
ATOM     28  C   LIG    1      -37.115  69.491  25.865  0.00  0.00    +0.023 A 
ATOM     29  C   LIG    1      -37.234  69.533  27.243  0.00  0.00    +0.111 A 
ATOM     30  N   LIG    1      -36.178  69.568  28.091  0.00  0.00    -0.252 NA
ENDBRANCH  22  24
ENDBRANCH  14  16
ENDBRANCH   4  12
BRANCH   1  32
ATOM     31  N   LIG    1      -27.827  76.072  32.330  0.00  0.00    -0.243 NA
ATOM     32  C   LIG    1      -28.759  76.688  31.698  0.00  0.00    +0.233 C 
BRANCH  32  33
ATOM     33  O   LIG    1      -28.804  78.015  31.464  0.00  0.00    -0.491 OA
ATOM     34  H   LIG    1      -29.660  78.304  31.114  0.00  0.00    +0.294 HD
ENDBRANCH  32  33
BRANCH  31  35
ATOM     35  C   LIG    1      -26.662  76.793  32.830  0.00  0.00    +0.204 C 
BRANCH  35  40
ATOM     36  C   LIG    1      -22.724  76.627  29.741  0.00  0.00    +0.174 C 
ATOM     37  N   LIG    1      -23.959  76.909  30.424  0.00  0.00    -0.254 N 
ATOM     38  N   LIG    1      -24.777  77.876  29.974  0.00  0.00    -0.066 NA
ATOM     39  N   LIG    1      -25.824  77.925  30.788  0.00  0.00    -0.133 NA
ATOM     40  C   LIG    1      -25.651  76.972  31.760  0.00  0.00    +0.104 A 
ATOM     41  C   LIG    1      -24.461  76.312  31.538  0.00  0.00    +0.135 A 
ENDBRANCH  35  40
ENDBRANCH  31  35
ENDBRANCH   1  32
TORSDOF 8
ENDMDL
MODEL 3
REMARK VINA RESULT:      -6.6      5.668     10.298
REMARK  Name = pdb/CHEMBL3897605.pdb
REMARK                            x       y       z     vdW  Elec       q    Type
REMARK                         _______ _______ _______ _____ _____    ______ ____
ROOT
ATOM      1  C   LIG    1      -36.817  69.900  24.517  0.00  0.00    +0.131 C 
ATOM      2  N   LIG    1      -36.337  68.866  25.230  0.00  0.00    -0.141 NA
ATOM      3  N   LIG    1      -35.669  69.431  26.264  0.00  0.00    -0.201 N 
ATOM      4  C   LIG    1      -35.489  70.802  26.067  0.00  0.00    +0.185 C 
ATOM      5  C   LIG    1      -36.345  71.131  25.042  0.00  0.00    +0.056 C 
ENDROOT
BRANCH   3   6
ATOM      6  C   LIG    1      -35.208  68.634  27.345  0.00  0.00    +0.052 A 
ATOM      7  C   LIG    1      -34.237  67.649  27.120  0.00  0.00    +0.025 A 
ATOM      8  C   LIG    1      -33.777  66.867  28.184  0.00  0.00    +0.002 A 
ATOM      9  C   LIG    1      -34.304  67.042  29.462  0.00  0.00    +0.000 A 
ATOM     10  C   LIG    1      -35.294  67.998  29.683  0.00  0.00    +0.002 A 
ATOM     11  C   LIG    1      -35.750  68.788  28.627  0.00  0.00    +0.025 A 
ENDBRANCH   3   6
BRANCH   4  12
ATOM     12  N   LIG    1      -34.571  71.638  26.720  0.00  0.00    -0.282 N 
ATOM     13  H   LIG    1      -33.636  71.688  26.327  0.00  0.00    +0.152 HD
ATOM     14  C   LIG    1      -34.905  72.503  27.818  0.00  0.00    +0.247 C 
ATOM     15  O   LIG    1      -36.048  72.545  28.265  0.00  0.00    -0.270 OA
BRANCH  14  16
ATOM     16  C   LIG    1      -33.859  73.406  28.360  0.00  0.00    +0.056 A 
ATOM     17  C   LIG    1      -32.877  72.997  29.257  0.00  0.00    +0.054 A 
ATOM     18 CL   LIG    1      -32.853  71.445  29.999  0.00  0.00    -0.083 Cl
ATOM     19  C   LIG    1      -31.897  73.898  29.669  0.00  0.00    +0.041 A 
ATOM     20  C   LIG    1      -31.943  75.245  29.285  0.00  0.00    +0.052 A 
ATOM     21 CL   LIG    1      -30.669  76.221  29.939  0.00  0.00    -0.083 Cl
ATOM     22  C   LIG    1      -32.994  75.736  28.480  0.00  0.00    +0.022 A 
ATOM     23  C   LIG    1      -33.906  74.768  27.985  0.00  0.00    +0.026 A 
BRANCH  22  24
ATOM     24  C   LIG    1      -33.215  77.179  28.188  0.00  0.00    +0.107 A 
ATOM     25  C   LIG    1      -32.543  77.864  27.167  0.00  0.00    +0.149 A 
ATOM     26  F   LIG    1      -31.642  77.251  26.385  0.00  0.00    -0.203 F 
ATOM     27  C   LIG    1      -32.820  79.204  26.919  0.00  0.00    +0.042 A 
ATOM     28  C   LIG    1      -33.802  79.838  27.666  0.00  0.00    +0.023 A 
ATOM     29  C   LIG    1      -34.435  79.107  28.655  0.00  0.00    +0.111 A 
ATOM     30  N   LIG    1      -34.141  77.817  28.945  0.00  0.00    -0.252 NA
ENDBRANCH  22  24
ENDBRANCH  14  16
ENDBRANCH   4  12
BRANCH   1  32
ATOM     31  N   LIG    1      -37.136  69.217  22.267  0.00  0.00    -0.243 NA
ATOM     32  C   LIG    1      -37.653  69.732  23.323  0.00  0.00    +0.233 C 
BRANCH  32  33
ATOM     33  O   LIG    1      -38.936  70.125  23.457  0.00  0.00    -0.491 OA
ATOM     34  H   LIG    1      -39.341  69.806  24.277  0.00  0.00    +0.294 HD
ENDBRANCH  32  33
BRANCH  31  35
ATOM     35  C   LIG    1      -37.952  68.963  21.084  0.00  0.00    +0.204 C 
BRANCH  35  40
ATOM     36  C   LIG    1      -35.429  65.216  18.924  0.00  0.00    +0.174 C 
ATOM     37  N   LIG    1      -36.195  66.393  19.235  0.00  0.00    -0.254 N 
ATOM     38  N   LIG    1      -36.601  67.217  18.254  0.00  0.00    -0.066 NA
ATOM     39  N   LIG    1      -37.272  68.212  18.820  0.00  0.00    -0.133 NA
ATOM     40  C   LIG    1      -37.281  68.002  20.176  0.00  0.00    +0.104 A 
ATOM     41  C   LIG    1      -36.596  66.839  20.457  0.00  0.00    +0.135 A 
ENDBRANCH  35  40
ENDBRANCH  31  35
ENDBRANCH   1  32
TORSDOF 8
ENDMDL
MODEL 4
REMARK VINA RESULT:      -6.6     17.555     20.164
REMARK  Name = pdb/CHEMBL3897605.pdb
REMARK                            x       y       z     vdW  Elec       q    Type
REMARK                         _______ _______ _______ _____ _____    ______ ____
ROOT
ATOM      1  C   LIG    1      -22.813  83.110  15.433  0.00  0.00    +0.131 C 
ATOM      2  N   LIG    1      -23.705  82.525  14.613  0.00  0.00    -0.141 NA
ATOM      3  N   LIG    1      -23.654  81.207  14.921  0.00  0.00    -0.201 N 
ATOM      4  C   LIG    1      -22.553  80.913  15.729  0.00  0.00    +0.185 C 
ATOM      5  C   LIG    1      -22.108  82.133  16.182  0.00  0.00    +0.056 C 
ENDROOT
BRANCH   3   6
ATOM      6  C   LIG    1      -24.620  80.308  14.396  0.00  0.00    +0.052 A 
ATOM      7  C   LIG    1      -24.928  80.334  13.029  0.00  0.00    +0.025 A 
ATOM      8  C   LIG    1      -25.874  79.445  12.510  0.00  0.00    +0.002 A 
ATOM      9  C   LIG    1      -26.536  78.554  13.353  0.00  0.00    +0.000 A 
ATOM     10  C   LIG    1      -26.257  78.548  14.718  0.00  0.00    +0.002 A 
ATOM     11  C   LIG    1      -25.306  79.426  15.241  0.00  0.00    +0.025 A 
ENDBRANCH   3   6
BRANCH   4  12
ATOM     12  N   LIG    1      -21.982  79.652  15.956  0.00  0.00    -0.282 N 
ATOM     13  H   LIG    1      -22.104  79.254  16.882  0.00  0.00    +0.152 HD
ATOM     14  C   LIG    1      -21.352  78.856  14.940  0.00  0.00    +0.247 C 
ATOM     15  O   LIG    1      -21.267  79.258  13.783  0.00  0.00    -0.270 OA
BRANCH  14  16
ATOM     16  C   LIG    1      -20.868  77.497  15.294  0.00  0.00    +0.056 A 
ATOM     17  C   LIG    1      -19.525  77.180  15.472  0.00  0.00    +0.054 A 
ATOM     18 CL   LIG    1      -18.237  78.266  15.128  0.00  0.00    -0.083 Cl
ATOM     19  C   LIG    1      -19.164  75.892  15.862  0.00  0.00    +0.041 A 
ATOM     20  C   LIG    1      -20.120  74.873  15.972  0.00  0.00    +0.052 A 
ATOM     21 CL   LIG    1      -19.474  73.328  16.417  0.00  0.00    -0.083 Cl
ATOM     22  C   LIG    1      -21.479  75.116  15.674  0.00  0.00    +0.022 A 
ATOM     23  C   LIG    1      -21.826  76.464  15.395  0.00  0.00    +0.026 A 
BRANCH  22  24
ATOM     24  C   LIG    1      -22.515  74.051  15.584  0.00  0.00    +0.107 A 
ATOM     25  C   LIG    1      -23.234  73.587  16.694  0.00  0.00    +0.149 A 
ATOM     26  F   LIG    1      -23.022  74.081  17.923  0.00  0.00    -0.203 F 
ATOM     27  C   LIG    1      -24.217  72.615  16.540  0.00  0.00    +0.042 A 
ATOM     28  C   LIG    1      -24.505  72.145  15.267  0.00  0.00    +0.023 A 
ATOM     29  C   LIG    1      -23.765  72.646  14.210  0.00  0.00    +0.111 A 
ATOM     30  N   LIG    1      -22.769  73.553  14.348  0.00  0.00    -0.252 NA
ENDBRANCH  22  24
ENDBRANCH  14  16
ENDBRANCH   4  12
BRANCH   1  32
ATOM     31  N   LIG    1      -22.466  85.197  14.358  0.00  0.00    -0.243 NA
ATOM     32  C   LIG    1      -22.583  84.559  15.466  0.00  0.00    +0.233 C 
BRANCH  32  33
ATOM     33  O   LIG    1      -22.539  85.108  16.696  0.00  0.00    -0.491 OA
ATOM     34  H   LIG    1      -21.787  85.708  16.810  0.00  0.00    +0.294 HD
ENDBRANCH  32  33
BRANCH  31  35
ATOM     35  C   LIG    1      -22.311  86.647  14.345  0.00  0.00    +0.204 C 
BRANCH  35  40
ATOM     36  C   LIG    1      -18.570  88.122  11.362  0.00  0.00    +0.174 C 
ATOM     37  N   LIG    1      -19.406  87.670  12.442  0.00  0.00    -0.254 N 
ATOM     38  N   LIG    1      -18.866  87.360  13.633  0.00  0.00    -0.066 NA
ATOM     39  N   LIG    1      -19.853  86.969  14.429  0.00  0.00    -0.133 NA
ATOM     40  C   LIG    1      -21.025  87.036  13.719  0.00  0.00    +0.104 A 
ATOM     41  C   LIG    1      -20.754  87.486  12.444  0.00  0.00    +0.135 A 
ENDBRANCH  35  40
ENDBRANCH  31  35
ENDBRANCH   1  32
TORSDOF 8
ENDMDL
MODEL 5
REMARK VINA RESULT:      -6.5     16.710     19.852
REMARK  Name = pdb/CHEMBL3897605.pdb
REMARK                            x       y       z     vdW  Elec       q    Type
REMARK                         _______ _______ _______ _____ _____    ______ ____
ROOT
ATOM      1  C   LIG    1      -29.116  77.668  11.629  0.00  0.00    +0.131 C 
ATOM      2  N   LIG    1      -28.648  76.407  11.630  0.00  0.00    -0.141 NA
ATOM      3  N   LIG    1      -27.522  76.450  12.381  0.00  0.00    -0.201 N 
ATOM      4  C   LIG    1      -27.122  77.765  12.629  0.00  0.00    +0.185 C 
ATOM      5  C   LIG    1      -28.208  78.537  12.289  0.00  0.00    +0.056 C 
ENDROOT
BRANCH   3   6
ATOM      6  C   LIG    1      -26.875  75.248  12.775  0.00  0.00    +0.052 A 
ATOM      7  C   LIG    1      -26.110  74.530  11.847  0.00  0.00    +0.025 A 
ATOM      8  C   LIG    1      -25.467  73.351  12.235  0.00  0.00    +0.002 A 
ATOM      9  C   LIG    1      -25.610  72.870  13.535  0.00  0.00    +0.000 A 
ATOM     10  C   LIG    1      -26.397  73.564  14.453  0.00  0.00    +0.002 A 
ATOM     11  C   LIG    1      -27.033  74.747  14.073  0.00  0.00    +0.025 A 
ENDBRANCH   3   6
BRANCH   4  12
ATOM     12  N   LIG    1      -25.858  78.200  13.053  0.00  0.00    -0.282 N 
ATOM     13  H   LIG    1      -25.196  78.458  12.327  0.00  0.00    +0.152 HD
ATOM     14  C   LIG    1      -25.496  78.413  14.426  0.00  0.00    +0.247 C 
ATOM     15  O   LIG    1      -26.298  78.204  15.332  0.00  0.00    -0.270 OA
BRANCH  14  16
ATOM     16  C   LIG    1      -24.152  78.965  14.734  0.00  0.00    +0.056 A 
ATOM     17  C   LIG    1      -23.059  78.179  15.089  0.00  0.00    +0.054 A 
ATOM     18 CL   LIG    1      -23.163  76.490  15.399  0.00  0.00    -0.083 Cl
ATOM     19  C   LIG    1      -21.819  78.775  15.303  0.00  0.00    +0.041 A 
ATOM     20  C   LIG    1      -21.670  80.169  15.277  0.00  0.00    +0.052 A 
ATOM     21 CL   LIG    1      -20.064  80.724  15.618  0.00  0.00    -0.083 Cl
ATOM     22  C   LIG    1      -22.778  81.014  15.050  0.00  0.00    +0.022 A 
ATOM     23  C   LIG    1      -23.998  80.369  14.721  0.00  0.00    +0.026 A 
BRANCH  22  24
ATOM     24  C   LIG    1      -22.738  82.495  15.193  0.00  0.00    +0.107 A 
ATOM     25  C   LIG    1      -22.694  83.142  16.436  0.00  0.00    +0.149 A 
ATOM     26  F   LIG    1      -22.691  82.453  17.587  0.00  0.00    -0.203 F 
ATOM     27  C   LIG    1      -22.621  84.530  16.504  0.00  0.00    +0.042 A 
ATOM     28  C   LIG    1      -22.547  85.259  15.327  0.00  0.00    +0.023 A 
ATOM     29  C   LIG    1      -22.588  84.563  14.131  0.00  0.00    +0.111 A 
ATOM     30  N   LIG    1      -22.712  83.216  14.046  0.00  0.00    -0.252 NA
ENDBRANCH  22  24
ENDBRANCH  14  16
ENDBRANCH   4  12
BRANCH   1  32
ATOM     31  N   LIG    1      -30.407  79.178  10.331  0.00  0.00    -0.243 NA
ATOM     32  C   LIG    1      -30.363  78.062  10.964  0.00  0.00    +0.233 C 
BRANCH  32  33
ATOM     33  O   LIG    1      -31.374  77.174  11.061  0.00  0.00    -0.491 OA
ATOM     34  H   LIG    1      -31.062  76.260  11.134  0.00  0.00    +0.294 HD
ENDBRANCH  32  33
BRANCH  31  35
ATOM     35  C   LIG    1      -31.602  79.571   9.594  0.00  0.00    +0.204 C 
BRANCH  35  40
ATOM     36  C   LIG    1      -34.529  83.183  11.454  0.00  0.00    +0.174 C 
ATOM     37  N   LIG    1      -33.449  82.365  10.970  0.00  0.00    -0.254 N 
ATOM     38  N   LIG    1      -32.196  82.849  10.931  0.00  0.00    -0.066 NA
ATOM     39  N   LIG    1      -31.414  81.895  10.440  0.00  0.00    -0.133 NA
ATOM     40  C   LIG    1      -32.197  80.802  10.168  0.00  0.00    +0.104 A 
ATOM     41  C   LIG    1      -33.503  81.087  10.505  0.00  0.00    +0.135 A 
ENDBRANCH  35  40
ENDBRANCH  31  35
ENDBRANCH   1  32
TORSDOF 8
ENDMDL
MODEL 6
REMARK VINA RESULT:      -6.5      5.456      7.767
REMARK  Name = pdb/CHEMBL3897605.pdb
REMARK                            x       y       z     vdW  Elec       q    Type
REMARK                         _______ _______ _______ _____ _____    ______ ____
ROOT
ATOM      1  C   LIG    1      -34.843  82.342  29.690  0.00  0.00    +0.131 C 
ATOM      2  N   LIG    1      -34.142  81.195  29.711  0.00  0.00    -0.141 NA
ATOM      3  N   LIG    1      -34.562  80.506  28.624  0.00  0.00    -0.201 N 
ATOM      4  C   LIG    1      -35.709  81.076  28.068  0.00  0.00    +0.185 C 
ATOM      5  C   LIG    1      -35.801  82.322  28.643  0.00  0.00    +0.056 C 
ENDROOT
BRANCH   3   6
ATOM      6  C   LIG    1      -33.879  79.331  28.209  0.00  0.00    +0.052 A 
ATOM      7  C   LIG    1      -32.975  79.390  27.140  0.00  0.00    +0.025 A 
ATOM      8  C   LIG    1      -32.298  78.236  26.735  0.00  0.00    +0.002 A 
ATOM      9  C   LIG    1      -32.542  77.019  27.370  0.00  0.00    +0.000 A 
ATOM     10  C   LIG    1      -33.465  76.950  28.412  0.00  0.00    +0.002 A 
ATOM     11  C   LIG    1      -34.137  78.102  28.828  0.00  0.00    +0.025 A 
ENDBRANCH   3   6
BRANCH   4  12
ATOM     12  N   LIG    1      -36.612  80.471  27.182  0.00  0.00    -0.282 N 
ATOM     13  H   LIG    1      -36.536  80.731  26.203  0.00  0.00    +0.152 HD
ATOM     14  C   LIG    1      -37.537  79.437  27.552  0.00  0.00    +0.247 C 
ATOM     15  O   LIG    1      -37.597  79.025  28.707  0.00  0.00    -0.270 OA
BRANCH  14  16
ATOM     16  C   LIG    1      -38.375  78.816  26.496  0.00  0.00    +0.056 A 
ATOM     17  C   LIG    1      -38.186  77.520  26.024  0.00  0.00    +0.054 A 
ATOM     18 CL   LIG    1      -36.848  76.533  26.465  0.00  0.00    -0.083 Cl
ATOM     19  C   LIG    1      -39.058  76.995  25.072  0.00  0.00    +0.041 A 
ATOM     20  C   LIG    1      -40.060  77.786  24.494  0.00  0.00    +0.052 A 
ATOM     21 CL   LIG    1      -41.009  76.974  23.292  0.00  0.00    -0.083 Cl
ATOM     22  C   LIG    1      -40.208  79.145  24.846  0.00  0.00    +0.022 A 
ATOM     23  C   LIG    1      -39.380  79.611  25.900  0.00  0.00    +0.026 A 
BRANCH  22  24
ATOM     24  C   LIG    1      -41.117  80.093  24.145  0.00  0.00    +0.107 A 
ATOM     25  C   LIG    1      -40.657  81.106  23.293  0.00  0.00    +0.149 A 
ATOM     26  F   LIG    1      -39.348  81.287  23.060  0.00  0.00    -0.203 F 
ATOM     27  C   LIG    1      -41.559  81.937  22.636  0.00  0.00    +0.042 A 
ATOM     28  C   LIG    1      -42.918  81.720  22.803  0.00  0.00    +0.023 A 
ATOM     29  C   LIG    1      -43.311  80.700  23.652  0.00  0.00    +0.111 A 
ATOM     30  N   LIG    1      -42.447  79.915  24.339  0.00  0.00    -0.252 NA
ENDBRANCH  22  24
ENDBRANCH  14  16
ENDBRANCH   4  12
BRANCH   1  32
ATOM     31  N   LIG    1      -33.486  83.637  31.144  0.00  0.00    -0.243 NA
ATOM     32  C   LIG    1      -34.661  83.414  30.676  0.00  0.00    +0.233 C 
BRANCH  32  33
ATOM     33  O   LIG    1      -35.775  84.104  30.991  0.00  0.00    -0.491 OA
ATOM     34  H   LIG    1      -35.645  84.701  31.742  0.00  0.00    +0.294 HD
ENDBRANCH  32  33
BRANCH  31  35
ATOM     35  C   LIG    1      -33.249  84.740  32.068  0.00  0.00    +0.204 C 
BRANCH  35  40
ATOM     36  C   LIG    1      -29.529  88.040  31.483  0.00  0.00    +0.174 C 
ATOM     37  N   LIG    1      -30.501  86.988  31.355  0.00  0.00    -0.254 N 
ATOM     38  N   LIG    1      -30.553  86.244  30.237  0.00  0.00    -0.066 NA
ATOM     39  N   LIG    1      -31.537  85.366  30.386  0.00  0.00    -0.133 NA
ATOM     40  C   LIG    1      -32.106  85.570  31.617  0.00  0.00    +0.104 A 
ATOM     41  C   LIG    1      -31.451  86.606  32.251  0.00  0.00    +0.135 A 
ENDBRANCH  35  40
ENDBRANCH  31  35
ENDBRANCH   1  32
TORSDOF 8
ENDMDL
MODEL 7
REMARK VINA RESULT:      -6.5     12.008     14.326
REMARK  Name = pdb/CHEMBL3897605.pdb
REMARK                            x       y       z     vdW  Elec       q    Type
REMARK                         _______ _______ _______ _____ _____    ______ ____
ROOT
ATOM      1  C   LIG    1      -27.450  85.117  35.789  0.00  0.00    +0.131 C 
ATOM      2  N   LIG    1      -26.903  86.345  35.827  0.00  0.00    -0.141 NA
ATOM      3  N   LIG    1      -27.751  87.129  35.119  0.00  0.00    -0.201 N 
ATOM      4  C   LIG    1      -28.680  86.367  34.408  0.00  0.00    +0.185 C 
ATOM      5  C   LIG    1      -28.593  85.105  34.948  0.00  0.00    +0.056 C 
ENDROOT
BRANCH   3   6
ATOM      6  C   LIG    1      -27.600  88.542  35.127  0.00  0.00    +0.052 A 
ATOM      7  C   LIG    1      -26.527  89.125  35.814  0.00  0.00    +0.025 A 
ATOM      8  C   LIG    1      -26.373  90.515  35.817  0.00  0.00    +0.002 A 
ATOM      9  C   LIG    1      -27.301  91.324  35.165  0.00  0.00    +0.000 A 
ATOM     10  C   LIG    1      -28.388  90.750  34.509  0.00  0.00    +0.002 A 
ATOM     11  C   LIG    1      -28.541  89.362  34.494  0.00  0.00    +0.025 A 
ENDBRANCH   3   6
BRANCH   4  12
ATOM     12  N   LIG    1      -29.466  86.784  33.324  0.00  0.00    -0.282 N 
ATOM     13  H   LIG    1      -28.995  86.888  32.430  0.00  0.00    +0.152 HD
ATOM     14  C   LIG    1      -30.892  86.951  33.376  0.00  0.00    +0.247 C 
ATOM     15  O   LIG    1      -31.515  86.743  34.414  0.00  0.00    -0.270 OA
BRANCH  14  16
ATOM     16  C   LIG    1      -31.616  87.309  32.131  0.00  0.00    +0.056 A 
ATOM     17  C   LIG    1      -31.940  86.390  31.136  0.00  0.00    +0.054 A 
ATOM     18 CL   LIG    1      -31.385  84.762  31.128  0.00  0.00    -0.083 Cl
ATOM     19  C   LIG    1      -32.675  86.802  30.027  0.00  0.00    +0.041 A 
ATOM     20  C   LIG    1      -33.002  88.151  29.834  0.00  0.00    +0.052 A 
ATOM     21 CL   LIG    1      -33.871  88.476  28.371  0.00  0.00    -0.083 Cl
ATOM     22  C   LIG    1      -32.582  89.139  30.751  0.00  0.00    +0.022 A 
ATOM     23  C   LIG    1      -31.939  88.669  31.925  0.00  0.00    +0.026 A 
BRANCH  22  24
ATOM     24  C   LIG    1      -32.725  90.604  30.521  0.00  0.00    +0.107 A 
ATOM     25  C   LIG    1      -33.619  91.407  31.243  0.00  0.00    +0.149 A 
ATOM     26  F   LIG    1      -34.414  90.894  32.193  0.00  0.00    -0.203 F 
ATOM     27  C   LIG    1      -33.680  92.777  31.008  0.00  0.00    +0.042 A 
ATOM     28  C   LIG    1      -32.813  93.340  30.083  0.00  0.00    +0.023 A 
ATOM     29  C   LIG    1      -31.949  92.496  29.407  0.00  0.00    +0.111 A 
ATOM     30  N   LIG    1      -31.913  91.154  29.586  0.00  0.00    -0.252 NA
ENDBRANCH  22  24
ENDBRANCH  14  16
ENDBRANCH   4  12
BRANCH   1  32
ATOM     31  N   LIG    1      -25.609  83.938  36.713  0.00  0.00    -0.243 NA
ATOM     32  C   LIG    1      -26.872  83.959  36.481  0.00  0.00    +0.233 C 
BRANCH  32  33
ATOM     33  O   LIG    1      -27.752  83.004  36.842  0.00  0.00    -0.491 OA
ATOM     34  H   LIG    1      -28.671  83.308  36.801  0.00  0.00    +0.294 HD
ENDBRANCH  32  33
BRANCH  31  35
ATOM     35  C   LIG    1      -25.007  82.842  37.464  0.00  0.00    +0.204 C 
BRANCH  35  40
ATOM     36  C   LIG    1      -22.974  79.519  34.319  0.00  0.00    +0.174 C 
ATOM     37  N   LIG    1      -23.814  80.268  35.215  0.00  0.00    -0.254 N 
ATOM     38  N   LIG    1      -25.056  79.840  35.497  0.00  0.00    -0.066 NA
ATOM     39  N   LIG    1      -25.600  80.716  36.332  0.00  0.00    -0.133 NA
ATOM     40  C   LIG    1      -24.680  81.705  36.570  0.00  0.00    +0.104 A 
ATOM     41  C   LIG    1      -23.529  81.431  35.862  0.00  0.00    +0.135 A 
ENDBRANCH  35  40
ENDBRANCH  31  35
ENDBRANCH   1  32
TORSDOF 8
ENDMDL
MODEL 8
REMARK VINA RESULT:      -6.5     13.844     17.552
REMARK  Name = pdb/CHEMBL3897605.pdb
REMARK                            x       y       z     vdW  Elec       q    Type
REMARK                         _______ _______ _______ _____ _____    ______ ____
ROOT
ATOM      1  C   LIG    1      -24.635  82.924  37.366  0.00  0.00    +0.131 C 
ATOM      2  N   LIG    1      -23.690  83.167  38.291  0.00  0.00    -0.141 NA
ATOM      3  N   LIG    1      -22.594  82.501  37.857  0.00  0.00    -0.201 N 
ATOM      4  C   LIG    1      -22.907  81.621  36.819  0.00  0.00    +0.185 C 
ATOM      5  C   LIG    1      -24.162  81.997  36.400  0.00  0.00    +0.056 C 
ENDROOT
BRANCH   3   6
ATOM      6  C   LIG    1      -21.334  82.705  38.482  0.00  0.00    +0.052 A 
ATOM      7  C   LIG    1      -20.464  83.689  37.993  0.00  0.00    +0.025 A 
ATOM      8  C   LIG    1      -19.227  83.896  38.609  0.00  0.00    +0.002 A 
ATOM      9  C   LIG    1      -18.842  83.105  39.690  0.00  0.00    +0.000 A 
ATOM     10  C   LIG    1      -19.689  82.104  40.159  0.00  0.00    +0.002 A 
ATOM     11  C   LIG    1      -20.931  81.899  39.553  0.00  0.00    +0.025 A 
ENDBRANCH   3   6
BRANCH   4  12
ATOM     12  N   LIG    1      -22.139  80.540  36.363  0.00  0.00    -0.282 N 
ATOM     13  H   LIG    1      -22.434  79.613  36.655  0.00  0.00    +0.152 HD
ATOM     14  C   LIG    1      -21.054  80.656  35.429  0.00  0.00    +0.247 C 
ATOM     15  O   LIG    1      -20.723  81.749  34.977  0.00  0.00    -0.270 OA
BRANCH  14  16
ATOM     16  C   LIG    1      -20.380  79.420  34.958  0.00  0.00    +0.056 A 
ATOM     17  C   LIG    1      -19.257  78.872  35.571  0.00  0.00    +0.054 A 
ATOM     18 CL   LIG    1      -18.391  79.650  36.837  0.00  0.00    -0.083 Cl
ATOM     19  C   LIG    1      -18.725  77.675  35.098  0.00  0.00    +0.041 A 
ATOM     20  C   LIG    1      -19.230  77.063  33.942  0.00  0.00    +0.052 A 
ATOM     21 CL   LIG    1      -18.405  75.611  33.480  0.00  0.00    -0.083 Cl
ATOM     22  C   LIG    1      -20.286  77.651  33.211  0.00  0.00    +0.022 A 
ATOM     23  C   LIG    1      -20.878  78.805  33.787  0.00  0.00    +0.026 A 
BRANCH  22  24
ATOM     24  C   LIG    1      -20.748  77.167  31.881  0.00  0.00    +0.107 A 
ATOM     25  C   LIG    1      -21.952  76.472  31.697  0.00  0.00    +0.149 A 
ATOM     26  F   LIG    1      -22.767  76.193  32.726  0.00  0.00    -0.203 F 
ATOM     27  C   LIG    1      -22.348  76.078  30.423  0.00  0.00    +0.042 A 
ATOM     28  C   LIG    1      -21.558  76.421  29.336  0.00  0.00    +0.023 A 
ATOM     29  C   LIG    1      -20.385  77.113  29.581  0.00  0.00    +0.111 A 
ATOM     30  N   LIG    1      -19.958  77.459  30.820  0.00  0.00    -0.252 NA
ENDBRANCH  22  24
ENDBRANCH  14  16
ENDBRANCH   4  12
BRANCH   1  32
ATOM     31  N   LIG    1      -26.455  84.084  36.379  0.00  0.00    -0.243 NA
ATOM     32  C   LIG    1      -25.982  83.504  37.422  0.00  0.00    +0.233 C 
BRANCH  32  33
ATOM     33  O   LIG    1      -26.630  83.345  38.594  0.00  0.00    -0.491 OA
ATOM     34  H   LIG    1      -26.156  82.763  39.206  0.00  0.00    +0.294 HD
ENDBRANCH  32  33
BRANCH  31  35
ATOM     35  C   LIG    1      -27.817  84.606  36.369  0.00  0.00    +0.204 C 
BRANCH  35  40
ATOM     36  C   LIG    1      -29.128  88.167  33.102  0.00  0.00    +0.174 C 
ATOM     37  N   LIG    1      -28.480  87.325  34.072  0.00  0.00    -0.254 N 
ATOM     38  N   LIG    1      -27.250  87.630  34.521  0.00  0.00    -0.066 NA
ATOM     39  N   LIG    1      -26.897  86.691  35.389  0.00  0.00    -0.133 NA
ATOM     40  C   LIG    1      -27.925  85.786  35.478  0.00  0.00    +0.104 A 
ATOM     41  C   LIG    1      -28.947  86.181  34.641  0.00  0.00    +0.135 A 
ENDBRANCH  35  40
ENDBRANCH  31  35
ENDBRANCH   1  32
TORSDOF 8
ENDMDL
MODEL 9
REMARK VINA RESULT:      -6.4      7.192      9.601
REMARK  Name = pdb/CHEMBL3897605.pdb
REMARK                            x       y       z     vdW  Elec       q    Type
REMARK                         _______ _______ _______ _____ _____    ______ ____
ROOT
ATOM      1  C   LIG    1      -35.002  67.030  22.092  0.00  0.00    +0.131 C 
ATOM      2  N   LIG    1      -34.469  67.242  23.309  0.00  0.00    -0.141 NA
ATOM      3  N   LIG    1      -35.343  68.064  23.937  0.00  0.00    -0.201 N 
ATOM      4  C   LIG    1      -36.279  68.593  23.046  0.00  0.00    +0.185 C 
ATOM      5  C   LIG    1      -36.165  67.824  21.911  0.00  0.00    +0.056 C 
ENDROOT
BRANCH   3   6
ATOM      6  C   LIG    1      -35.208  68.330  25.326  0.00  0.00    +0.052 A 
ATOM      7  C   LIG    1      -34.123  69.086  25.790  0.00  0.00    +0.025 A 
ATOM      8  C   LIG    1      -33.993  69.355  27.156  0.00  0.00    +0.002 A 
ATOM      9  C   LIG    1      -34.921  68.846  28.062  0.00  0.00    +0.000 A 
ATOM     10  C   LIG    1      -35.983  68.066  27.608  0.00  0.00    +0.002 A 
ATOM     11  C   LIG    1      -36.125  67.804  26.244  0.00  0.00    +0.025 A 
ENDBRANCH   3   6
BRANCH   4  12
ATOM     12  N   LIG    1      -37.096  69.716  23.242  0.00  0.00    -0.282 N 
ATOM     13  H   LIG    1      -36.753  70.600  22.879  0.00  0.00    +0.152 HD
ATOM     14  C   LIG    1      -38.415  69.667  23.808  0.00  0.00    +0.247 C 
ATOM     15  O   LIG    1      -38.907  68.603  24.174  0.00  0.00    -0.270 OA
BRANCH  14  16
ATOM     16  C   LIG    1      -39.211  70.918  23.877  0.00  0.00    +0.056 A 
ATOM     17  C   LIG    1      -40.407  71.110  23.190  0.00  0.00    +0.054 A 
ATOM     18 CL   LIG    1      -41.026  70.001  22.031  0.00  0.00    -0.083 Cl
ATOM     19  C   LIG    1      -41.120  72.295  23.359  0.00  0.00    +0.041 A 
ATOM     20  C   LIG    1      -40.602  73.350  24.123  0.00  0.00    +0.052 A 
ATOM     21 CL   LIG    1      -41.607  74.760  24.172  0.00  0.00    -0.083 Cl
ATOM     22  C   LIG    1      -39.332  73.251  24.732  0.00  0.00    +0.022 A 
ATOM     23  C   LIG    1      -38.689  71.990  24.635  0.00  0.00    +0.026 A 
BRANCH  22  24
ATOM     24  C   LIG    1      -38.635  74.388  25.395  0.00  0.00    +0.107 A 
ATOM     25  C   LIG    1      -38.510  74.501  26.786  0.00  0.00    +0.149 A 
ATOM     26  F   LIG    1      -39.023  73.579  27.615  0.00  0.00    -0.203 F 
ATOM     27  C   LIG    1      -37.815  75.569  27.345  0.00  0.00    +0.042 A 
ATOM     28  C   LIG    1      -37.211  76.493  26.505  0.00  0.00    +0.023 A 
ATOM     29  C   LIG    1      -37.365  76.324  25.141  0.00  0.00    +0.111 A 
ATOM     30  N   LIG    1      -38.082  75.320  24.581  0.00  0.00    -0.252 NA
ENDBRANCH  22  24
ENDBRANCH  14  16
ENDBRANCH   4  12
BRANCH   1  32
ATOM     31  N   LIG    1      -33.188  66.370  20.711  0.00  0.00    -0.243 NA
ATOM     32  C   LIG    1      -34.394  66.146  21.092  0.00  0.00    +0.233 C 
BRANCH  32  33
ATOM     33  O   LIG    1      -35.174  65.130  20.669  0.00  0.00    -0.491 OA
ATOM     34  H   LIG    1      -34.989  64.300  21.132  0.00  0.00    +0.294 HD
ENDBRANCH  32  33
BRANCH  31  35
ATOM     35  C   LIG    1      -32.521  65.471  19.777  0.00  0.00    +0.204 C 
BRANCH  35  40
ATOM     36  C   LIG    1      -28.913  68.369  17.865  0.00  0.00    +0.174 C 
ATOM     37  N   LIG    1      -29.707  67.316  18.440  0.00  0.00    -0.254 N 
ATOM     38  N   LIG    1      -29.155  66.122  18.715  0.00  0.00    -0.066 NA
ATOM     39  N   LIG    1      -30.106  65.350  19.224  0.00  0.00    -0.133 NA
ATOM     40  C   LIG    1      -31.269  66.077  19.263  0.00  0.00    +0.104 A 
ATOM     41  C   LIG    1      -31.028  67.340  18.766  0.00  0.00    +0.135 A 
ENDBRANCH  35  40
ENDBRANCH  31  35
ENDBRANCH   1  32
TORSDOF 8
ENDMDL
