MODEL 1
REMARK VINA RESULT:      -5.8      0.000      0.000
REMARK  Name = pdb/CHEMBL3675942.pdb
REMARK                            x       y       z     vdW  Elec       q    Type
REMARK                         _______ _______ _______ _____ _____    ______ ____
ROOT
ATOM      1  C   LIG    1      -23.384  79.515  34.584  0.00  0.00    +0.126 A 
ATOM      2  N   LIG    1      -23.533  78.970  33.384  0.00  0.00    -0.212 NA
ATOM      3  C   LIG    1      -24.686  78.254  33.123  0.00  0.00    +0.170 A 
ATOM      4  C   LIG    1      -25.175  77.595  31.995  0.00  0.00    +0.102 A 
ATOM      5  C   LIG    1      -26.379  76.999  32.421  0.00  0.00    +0.150 A 
ATOM      6  N   LIG    1      -26.680  77.269  33.681  0.00  0.00    -0.173 NA
ATOM      7  N   LIG    1      -25.662  78.054  34.102  0.00  0.00    -0.221 N 
ATOM      8  C   LIG    1      -25.540  78.648  35.339  0.00  0.00    +0.118 A 
ATOM      9  C   LIG    1      -24.474  79.399  35.625  0.00  0.00    +0.063 A 
ENDROOT
BRANCH   1  11
ATOM     10  C   LIG    1      -21.099  79.588  35.718  0.00  0.00    +0.108 C 
ATOM     11  N   LIG    1      -22.203  80.193  34.923  0.00  0.00    -0.308 N 
ATOM     12  C   LIG    1      -22.185  81.650  35.105  0.00  0.00    +0.107 C 
ATOM     13  C   LIG    1      -21.434  81.858  36.412  0.00  0.00    +0.021 C 
ATOM     14  C   LIG    1      -20.369  80.782  36.359  0.00  0.00    +0.029 C 
BRANCH  10  18
ATOM     15  F   LIG    1      -18.392  78.554  31.723  0.00  0.00    -0.205 F 
ATOM     16  C   LIG    1      -18.759  78.254  32.976  0.00  0.00    +0.124 A 
ATOM     17  C   LIG    1      -19.720  79.041  33.617  0.00  0.00    +0.046 A 
ATOM     18  C   LIG    1      -20.106  78.749  34.934  0.00  0.00    +0.011 A 
ATOM     19  C   LIG    1      -19.468  77.671  35.574  0.00  0.00    +0.129 A 
ATOM     20  F   LIG    1      -19.769  77.388  36.849  0.00  0.00    -0.205 F 
ATOM     21  C   LIG    1      -18.515  76.881  34.928  0.00  0.00    +0.041 A 
ATOM     22  C   LIG    1      -18.160  77.173  33.615  0.00  0.00    +0.041 A 
ENDBRANCH  10  18
ENDBRANCH   1  11
BRANCH   4  23
ATOM     23  C   LIG    1      -24.630  77.482  30.670  0.00  0.00    +0.272 C 
ATOM     24  N   LIG    1      -23.294  77.781  30.576  0.00  0.00    -0.190 N 
ATOM     25  H   LIG    1      -22.717  77.809  31.417  0.00  0.00    +0.183 HD
ATOM     26  O   LIG    1      -25.348  77.176  29.710  0.00  0.00    -0.268 OA
BRANCH  24  27
ATOM     27  O   LIG    1      -22.657  77.403  29.372  0.00  0.00    -0.279 OA
BRANCH  27  28
ATOM     28  C   LIG    1      -21.958  76.172  29.592  0.00  0.00    +0.193 C 
BRANCH  28  29
ATOM     29  C   LIG    1      -21.068  76.364  30.774  0.00  0.00    +0.017 C 
ATOM     30  C   LIG    1      -19.955  75.376  30.994  0.00  0.00    +0.006 C 
ATOM     31  C   LIG    1      -21.093  75.450  31.973  0.00  0.00    +0.006 C 
ENDBRANCH  28  29
ENDBRANCH  27  28
ENDBRANCH  24  27
ENDBRANCH   4  23
TORSDOF 6
ENDMDL
MODEL 2
REMARK VINA RESULT:      -5.4      1.972      3.515
REMARK  Name = pdb/CHEMBL3675942.pdb
REMARK                            x       y       z     vdW  Elec       q    Type
REMARK                         _______ _______ _______ _____ _____    ______ ____
ROOT
ATOM      1  C   LIG    1      -23.150  78.212  35.003  0.00  0.00    +0.126 A 
ATOM      2  N   LIG    1      -23.857  77.820  33.953  0.00  0.00    -0.212 NA
ATOM      3  C   LIG    1      -25.218  77.631  34.108  0.00  0.00    +0.170 A 
ATOM      4  C   LIG    1      -26.244  77.266  33.236  0.00  0.00    +0.102 A 
ATOM      5  C   LIG    1      -27.392  77.178  34.049  0.00  0.00    +0.150 A 
ATOM      6  N   LIG    1      -27.163  77.494  35.314  0.00  0.00    -0.173 NA
ATOM      7  N   LIG    1      -25.845  77.794  35.346  0.00  0.00    -0.221 N 
ATOM      8  C   LIG    1      -25.129  78.240  36.435  0.00  0.00    +0.118 A 
ATOM      9  C   LIG    1      -23.824  78.495  36.327  0.00  0.00    +0.063 A 
ENDROOT
BRANCH   1  11
ATOM     10  C   LIG    1      -21.068  79.633  34.596  0.00  0.00    +0.108 C 
ATOM     11  N   LIG    1      -21.756  78.352  34.918  0.00  0.00    -0.308 N 
ATOM     12  C   LIG    1      -20.900  77.231  34.509  0.00  0.00    +0.107 C 
ATOM     13  C   LIG    1      -19.968  77.829  33.465  0.00  0.00    +0.021 C 
ATOM     14  C   LIG    1      -19.708  79.219  34.008  0.00  0.00    +0.029 C 
BRANCH  10  18
ATOM     15  F   LIG    1      -18.651  81.185  38.609  0.00  0.00    -0.205 F 
ATOM     16  C   LIG    1      -19.645  81.349  37.727  0.00  0.00    +0.124 A 
ATOM     17  C   LIG    1      -19.820  80.411  36.706  0.00  0.00    +0.046 A 
ATOM     18  C   LIG    1      -20.849  80.575  35.766  0.00  0.00    +0.011 A 
ATOM     19  C   LIG    1      -21.656  81.721  35.880  0.00  0.00    +0.129 A 
ATOM     20  F   LIG    1      -22.618  81.945  34.974  0.00  0.00    -0.205 F 
ATOM     21  C   LIG    1      -21.484  82.653  36.906  0.00  0.00    +0.041 A 
ATOM     22  C   LIG    1      -20.472  82.463  37.841  0.00  0.00    +0.041 A 
ENDBRANCH  10  18
ENDBRANCH   1  11
BRANCH   4  23
ATOM     23  C   LIG    1      -26.219  77.001  31.823  0.00  0.00    +0.272 C 
ATOM     24  N   LIG    1      -25.206  77.628  31.144  0.00  0.00    -0.190 N 
ATOM     25  H   LIG    1      -24.411  78.013  31.653  0.00  0.00    +0.183 HD
ATOM     26  O   LIG    1      -27.083  76.289  31.294  0.00  0.00    -0.268 OA
BRANCH  24  27
ATOM     27  O   LIG    1      -24.966  77.170  29.828  0.00  0.00    -0.279 OA
BRANCH  27  28
ATOM     28  C   LIG    1      -23.615  77.491  29.474  0.00  0.00    +0.193 C 
BRANCH  28  29
ATOM     29  C   LIG    1      -22.733  77.013  30.579  0.00  0.00    +0.017 C 
ATOM     30  C   LIG    1      -21.295  76.706  30.259  0.00  0.00    +0.006 C 
ATOM     31  C   LIG    1      -22.225  75.596  30.664  0.00  0.00    +0.006 C 
ENDBRANCH  28  29
ENDBRANCH  27  28
ENDBRANCH  24  27
ENDBRANCH   4  23
TORSDOF 6
ENDMDL
MODEL 3
REMARK VINA RESULT:      -5.2      6.587     10.487
REMARK  Name = pdb/CHEMBL3675942.pdb
REMARK                            x       y       z     vdW  Elec       q    Type
REMARK                         _______ _______ _______ _____ _____    ______ ____
ROOT
ATOM      1  C   LIG    1      -30.868  75.594  31.117  0.00  0.00    +0.126 A 
ATOM      2  N   LIG    1      -29.587  75.922  31.027  0.00  0.00    -0.212 NA
ATOM      3  C   LIG    1      -28.949  76.405  32.154  0.00  0.00    +0.170 A 
ATOM      4  C   LIG    1      -27.639  76.803  32.422  0.00  0.00    +0.102 A 
ATOM      5  C   LIG    1      -27.669  77.266  33.753  0.00  0.00    +0.150 A 
ATOM      6  N   LIG    1      -28.859  77.146  34.322  0.00  0.00    -0.173 NA
ATOM      7  N   LIG    1      -29.632  76.599  33.357  0.00  0.00    -0.221 N 
ATOM      8  C   LIG    1      -30.953  76.224  33.476  0.00  0.00    +0.118 A 
ATOM      9  C   LIG    1      -31.601  75.697  32.435  0.00  0.00    +0.063 A 
ENDROOT
BRANCH   1  11
ATOM     10  C   LIG    1      -32.959  75.617  29.652  0.00  0.00    +0.108 C 
ATOM     11  N   LIG    1      -31.580  75.164  29.986  0.00  0.00    -0.308 N 
ATOM     12  C   LIG    1      -31.356  73.835  29.402  0.00  0.00    +0.107 C 
ATOM     13  C   LIG    1      -32.755  73.273  29.195  0.00  0.00    +0.021 C 
ATOM     14  C   LIG    1      -33.547  74.495  28.779  0.00  0.00    +0.029 C 
BRANCH  10  18
ATOM     15  F   LIG    1      -32.059  78.601  25.826  0.00  0.00    -0.205 F 
ATOM     16  C   LIG    1      -32.631  78.398  27.019  0.00  0.00    +0.124 A 
ATOM     17  C   LIG    1      -32.453  77.173  27.668  0.00  0.00    +0.046 A 
ATOM     18  C   LIG    1      -33.057  76.939  28.912  0.00  0.00    +0.011 A 
ATOM     19  C   LIG    1      -33.859  77.963  29.448  0.00  0.00    +0.129 A 
ATOM     20  F   LIG    1      -34.496  77.764  30.610  0.00  0.00    -0.205 F 
ATOM     21  C   LIG    1      -34.028  79.189  28.803  0.00  0.00    +0.041 A 
ATOM     22  C   LIG    1      -33.405  79.411  27.579  0.00  0.00    +0.041 A 
ENDBRANCH  10  18
ENDBRANCH   1  11
BRANCH   4  23
ATOM     23  C   LIG    1      -26.471  76.797  31.584  0.00  0.00    +0.272 C 
ATOM     24  N   LIG    1      -25.728  75.646  31.652  0.00  0.00    -0.190 N 
ATOM     25  H   LIG    1      -26.133  74.799  32.051  0.00  0.00    +0.183 HD
ATOM     26  O   LIG    1      -26.172  77.785  30.901  0.00  0.00    -0.268 OA
BRANCH  24  27
ATOM     27  O   LIG    1      -24.753  75.477  30.643  0.00  0.00    -0.279 OA
BRANCH  27  28
ATOM     28  C   LIG    1      -23.456  75.648  31.228  0.00  0.00    +0.193 C 
BRANCH  28  29
ATOM     29  C   LIG    1      -22.527  76.086  30.145  0.00  0.00    +0.017 C 
ATOM     30  C   LIG    1      -21.051  76.092  30.434  0.00  0.00    +0.006 C 
ATOM     31  C   LIG    1      -21.771  77.390  30.195  0.00  0.00    +0.006 C 
ENDBRANCH  28  29
ENDBRANCH  27  28
ENDBRANCH  24  27
ENDBRANCH   4  23
TORSDOF 6
ENDMDL
MODEL 4
REMARK VINA RESULT:      -5.2      2.703      5.517
REMARK  Name = pdb/CHEMBL3675942.pdb
REMARK                            x       y       z     vdW  Elec       q    Type
REMARK                         _______ _______ _______ _____ _____    ______ ____
ROOT
ATOM      1  C   LIG    1      -24.420  78.595  34.632  0.00  0.00    +0.126 A 
ATOM      2  N   LIG    1      -23.111  78.691  34.442  0.00  0.00    -0.212 NA
ATOM      3  C   LIG    1      -22.427  79.715  35.069  0.00  0.00    +0.170 A 
ATOM      4  C   LIG    1      -21.082  80.085  35.119  0.00  0.00    +0.102 A 
ATOM      5  C   LIG    1      -21.064  81.274  35.876  0.00  0.00    +0.150 A 
ATOM      6  N   LIG    1      -22.260  81.630  36.319  0.00  0.00    -0.173 NA
ATOM      7  N   LIG    1      -23.086  80.668  35.850  0.00  0.00    -0.221 N 
ATOM      8  C   LIG    1      -24.438  80.557  36.089  0.00  0.00    +0.118 A 
ATOM      9  C   LIG    1      -25.138  79.553  35.555  0.00  0.00    +0.063 A 
ENDROOT
BRANCH   1  11
ATOM     10  C   LIG    1      -25.426  77.623  32.497  0.00  0.00    +0.108 C 
ATOM     11  N   LIG    1      -25.173  77.617  33.964  0.00  0.00    -0.308 N 
ATOM     12  C   LIG    1      -26.266  76.904  34.638  0.00  0.00    +0.107 C 
ATOM     13  C   LIG    1      -27.421  76.964  33.649  0.00  0.00    +0.021 C 
ATOM     14  C   LIG    1      -26.724  76.818  32.313  0.00  0.00    +0.029 C 
BRANCH  10  18
ATOM     15  F   LIG    1      -22.188  74.086  31.327  0.00  0.00    -0.205 F 
ATOM     16  C   LIG    1      -22.753  75.269  31.051  0.00  0.00    +0.124 A 
ATOM     17  C   LIG    1      -23.718  75.788  31.918  0.00  0.00    +0.046 A 
ATOM     18  C   LIG    1      -24.329  77.020  31.638  0.00  0.00    +0.011 A 
ATOM     19  C   LIG    1      -23.953  77.675  30.451  0.00  0.00    +0.129 A 
ATOM     20  F   LIG    1      -24.548  78.829  30.117  0.00  0.00    -0.205 F 
ATOM     21  C   LIG    1      -22.982  77.159  29.591  0.00  0.00    +0.041 A 
ATOM     22  C   LIG    1      -22.372  75.946  29.897  0.00  0.00    +0.041 A 
ENDBRANCH  10  18
ENDBRANCH   1  11
BRANCH   4  23
ATOM     23  C   LIG    1      -19.921  79.465  34.541  0.00  0.00    +0.272 C 
ATOM     24  N   LIG    1      -20.076  79.071  33.236  0.00  0.00    -0.190 N 
ATOM     25  H   LIG    1      -20.848  79.439  32.679  0.00  0.00    +0.183 HD
ATOM     26  O   LIG    1      -18.896  79.284  35.210  0.00  0.00    -0.268 OA
BRANCH  24  27
ATOM     27  O   LIG    1      -18.890  78.734  32.545  0.00  0.00    -0.279 OA
BRANCH  27  28
ATOM     28  C   LIG    1      -19.210  77.774  31.531  0.00  0.00    +0.193 C 
BRANCH  28  29
ATOM     29  C   LIG    1      -18.571  76.482  31.916  0.00  0.00    +0.017 C 
ATOM     30  C   LIG    1      -18.888  75.260  31.097  0.00  0.00    +0.006 C 
ATOM     31  C   LIG    1      -19.342  75.339  32.527  0.00  0.00    +0.006 C 
ENDBRANCH  28  29
ENDBRANCH  27  28
ENDBRANCH  24  27
ENDBRANCH   4  23
TORSDOF 6
ENDMDL
MODEL 5
REMARK VINA RESULT:      -5.1      2.148      5.402
REMARK  Name = pdb/CHEMBL3675942.pdb
REMARK                            x       y       z     vdW  Elec       q    Type
REMARK                         _______ _______ _______ _____ _____    ______ ____
ROOT
ATOM      1  C   LIG    1      -20.578  76.980  31.196  0.00  0.00    +0.126 A 
ATOM      2  N   LIG    1      -21.518  77.456  32.001  0.00  0.00    -0.212 NA
ATOM      3  C   LIG    1      -22.821  77.495  31.541  0.00  0.00    +0.170 A 
ATOM      4  C   LIG    1      -24.032  77.889  32.113  0.00  0.00    +0.102 A 
ATOM      5  C   LIG    1      -24.979  77.750  31.078  0.00  0.00    +0.150 A 
ATOM      6  N   LIG    1      -24.463  77.274  29.956  0.00  0.00    -0.173 NA
ATOM      7  N   LIG    1      -23.154  77.095  30.245  0.00  0.00    -0.221 N 
ATOM      8  C   LIG    1      -22.195  76.561  29.413  0.00  0.00    +0.118 A 
ATOM      9  C   LIG    1      -20.931  76.445  29.828  0.00  0.00    +0.063 A 
ENDROOT
BRANCH   1  11
ATOM     10  C   LIG    1      -18.575  78.113  32.300  0.00  0.00    +0.108 C 
ATOM     11  N   LIG    1      -19.230  76.982  31.587  0.00  0.00    -0.308 N 
ATOM     12  C   LIG    1      -18.215  76.238  30.831  0.00  0.00    +0.107 C 
ATOM     13  C   LIG    1      -17.073  77.228  30.655  0.00  0.00    +0.021 C 
ATOM     14  C   LIG    1      -17.078  77.979  31.970  0.00  0.00    +0.029 C 
BRANCH  10  18
ATOM     15  F   LIG    1      -17.604  76.567  36.886  0.00  0.00    -0.205 F 
ATOM     16  C   LIG    1      -18.266  77.391  36.063  0.00  0.00    +0.124 A 
ATOM     17  C   LIG    1      -18.086  77.275  34.682  0.00  0.00    +0.046 A 
ATOM     18  C   LIG    1      -18.761  78.138  33.807  0.00  0.00    +0.011 A 
ATOM     19  C   LIG    1      -19.584  79.127  34.376  0.00  0.00    +0.129 A 
ATOM     20  F   LIG    1      -20.208  80.006  33.580  0.00  0.00    -0.205 F 
ATOM     21  C   LIG    1      -19.769  79.236  35.756  0.00  0.00    +0.041 A 
ATOM     22  C   LIG    1      -19.107  78.357  36.608  0.00  0.00    +0.041 A 
ENDBRANCH  10  18
ENDBRANCH   1  11
BRANCH   4  23
ATOM     23  C   LIG    1      -24.330  78.360  33.438  0.00  0.00    +0.272 C 
ATOM     24  N   LIG    1      -23.239  78.801  34.144  0.00  0.00    -0.190 N 
ATOM     25  H   LIG    1      -22.368  79.015  33.658  0.00  0.00    +0.183 HD
ATOM     26  O   LIG    1      -25.483  78.320  33.884  0.00  0.00    -0.268 OA
BRANCH  24  27
ATOM     27  O   LIG    1      -23.517  79.537  35.318  0.00  0.00    -0.279 OA
BRANCH  27  28
ATOM     28  C   LIG    1      -23.074  80.887  35.126  0.00  0.00    +0.193 C 
BRANCH  28  29
ATOM     29  C   LIG    1      -22.623  81.406  36.450  0.00  0.00    +0.017 C 
ATOM     30  C   LIG    1      -22.978  82.821  36.818  0.00  0.00    +0.006 C 
ATOM     31  C   LIG    1      -21.540  82.445  36.595  0.00  0.00    +0.006 C 
ENDBRANCH  28  29
ENDBRANCH  27  28
ENDBRANCH  24  27
ENDBRANCH   4  23
TORSDOF 6
ENDMDL
MODEL 6
REMARK VINA RESULT:      -5.1     14.520     18.605
REMARK  Name = pdb/CHEMBL3675942.pdb
REMARK                            x       y       z     vdW  Elec       q    Type
REMARK                         _______ _______ _______ _____ _____    ______ ____
ROOT
ATOM      1  C   LIG    1      -38.903  76.175  26.747  0.00  0.00    +0.126 A 
ATOM      2  N   LIG    1      -37.589  76.339  26.812  0.00  0.00    -0.212 NA
ATOM      3  C   LIG    1      -36.918  75.854  27.920  0.00  0.00    +0.170 A 
ATOM      4  C   LIG    1      -35.574  75.822  28.292  0.00  0.00    +0.102 A 
ATOM      5  C   LIG    1      -35.572  75.253  29.582  0.00  0.00    +0.150 A 
ATOM      6  N   LIG    1      -36.779  74.905  30.001  0.00  0.00    -0.173 NA
ATOM      7  N   LIG    1      -37.595  75.248  28.980  0.00  0.00    -0.221 N 
ATOM      8  C   LIG    1      -38.954  75.034  28.907  0.00  0.00    +0.118 A 
ATOM      9  C   LIG    1      -39.643  75.430  27.835  0.00  0.00    +0.063 A 
ENDROOT
BRANCH   1  11
ATOM     10  C   LIG    1      -39.532  76.231  24.274  0.00  0.00    +0.108 C 
ATOM     11  N   LIG    1      -39.641  76.709  25.680  0.00  0.00    -0.308 N 
ATOM     12  C   LIG    1      -40.075  78.112  25.678  0.00  0.00    +0.107 C 
ATOM     13  C   LIG    1      -39.699  78.622  24.294  0.00  0.00    +0.021 C 
ATOM     14  C   LIG    1      -39.978  77.424  23.411  0.00  0.00    +0.029 C 
BRANCH  10  18
ATOM     15  F   LIG    1      -43.579  74.022  22.514  0.00  0.00    -0.205 F 
ATOM     16  C   LIG    1      -42.351  73.927  23.039  0.00  0.00    +0.124 A 
ATOM     17  C   LIG    1      -41.661  75.092  23.386  0.00  0.00    +0.046 A 
ATOM     18  C   LIG    1      -40.368  75.012  23.926  0.00  0.00    +0.011 A 
ATOM     19  C   LIG    1      -39.801  73.733  24.066  0.00  0.00    +0.129 A 
ATOM     20  F   LIG    1      -38.549  73.612  24.530  0.00  0.00    -0.205 F 
ATOM     21  C   LIG    1      -40.496  72.570  23.727  0.00  0.00    +0.041 A 
ATOM     22  C   LIG    1      -41.785  72.668  23.213  0.00  0.00    +0.041 A 
ENDBRANCH  10  18
ENDBRANCH   1  11
BRANCH   4  23
ATOM     23  C   LIG    1      -34.400  76.265  27.591  0.00  0.00    +0.272 C 
ATOM     24  N   LIG    1      -34.451  77.565  27.159  0.00  0.00    -0.190 N 
ATOM     25  H   LIG    1      -35.144  78.205  27.546  0.00  0.00    +0.183 HD
ATOM     26  O   LIG    1      -33.455  75.493  27.381  0.00  0.00    -0.268 OA
BRANCH  24  27
ATOM     27  O   LIG    1      -33.225  78.127  26.734  0.00  0.00    -0.279 OA
BRANCH  27  28
ATOM     28  C   LIG    1      -33.158  79.480  27.199  0.00  0.00    +0.193 C 
BRANCH  28  29
ATOM     29  C   LIG    1      -34.426  79.769  27.931  0.00  0.00    +0.017 C 
ATOM     30  C   LIG    1      -35.106  81.088  27.682  0.00  0.00    +0.006 C 
ATOM     31  C   LIG    1      -34.518  80.793  29.034  0.00  0.00    +0.006 C 
ENDBRANCH  28  29
ENDBRANCH  27  28
ENDBRANCH  24  27
ENDBRANCH   4  23
TORSDOF 6
ENDMDL
MODEL 7
REMARK VINA RESULT:      -5.1     17.369     20.661
REMARK  Name = pdb/CHEMBL3675942.pdb
REMARK                            x       y       z     vdW  Elec       q    Type
REMARK                         _______ _______ _______ _____ _____    ______ ____
ROOT
ATOM      1  C   LIG    1      -39.453  70.005  23.594  0.00  0.00    +0.126 A 
ATOM      2  N   LIG    1      -38.248  69.453  23.581  0.00  0.00    -0.212 NA
ATOM      3  C   LIG    1      -37.839  68.790  22.439  0.00  0.00    +0.170 A 
ATOM      4  C   LIG    1      -36.659  68.142  22.074  0.00  0.00    +0.102 A 
ATOM      5  C   LIG    1      -36.922  67.610  20.796  0.00  0.00    +0.150 A 
ATOM      6  N   LIG    1      -38.129  67.910  20.343  0.00  0.00    -0.173 NA
ATOM      7  N   LIG    1      -38.678  68.650  21.332  0.00  0.00    -0.221 N 
ATOM      8  C   LIG    1      -39.917  69.253  21.317  0.00  0.00    +0.118 A 
ATOM      9  C   LIG    1      -40.339  69.955  22.371  0.00  0.00    +0.063 A 
ENDROOT
BRANCH   1  11
ATOM     10  C   LIG    1      -39.253  71.749  25.448  0.00  0.00    +0.108 C 
ATOM     11  N   LIG    1      -39.945  70.629  24.752  0.00  0.00    -0.308 N 
ATOM     12  C   LIG    1      -40.771  69.898  25.721  0.00  0.00    +0.107 C 
ATOM     13  C   LIG    1      -40.157  70.236  27.071  0.00  0.00    +0.021 C 
ATOM     14  C   LIG    1      -39.754  71.685  26.901  0.00  0.00    +0.029 C 
BRANCH  10  18
ATOM     15  F   LIG    1      -41.972  75.088  23.035  0.00  0.00    -0.205 F 
ATOM     16  C   LIG    1      -40.860  74.781  23.715  0.00  0.00    +0.124 A 
ATOM     17  C   LIG    1      -40.664  73.470  24.158  0.00  0.00    +0.046 A 
ATOM     18  C   LIG    1      -39.511  73.135  24.883  0.00  0.00    +0.011 A 
ATOM     19  C   LIG    1      -38.597  74.167  25.164  0.00  0.00    +0.129 A 
ATOM     20  F   LIG    1      -37.507  73.903  25.897  0.00  0.00    -0.205 F 
ATOM     21  C   LIG    1      -38.790  75.474  24.713  0.00  0.00    +0.041 A 
ATOM     22  C   LIG    1      -39.930  75.783  23.977  0.00  0.00    +0.041 A 
ENDBRANCH  10  18
ENDBRANCH   1  11
BRANCH   4  23
ATOM     23  C   LIG    1      -35.419  67.986  22.786  0.00  0.00    +0.272 C 
ATOM     24  N   LIG    1      -35.354  68.671  23.973  0.00  0.00    -0.190 N 
ATOM     25  H   LIG    1      -36.208  69.021  24.408  0.00  0.00    +0.183 HD
ATOM     26  O   LIG    1      -34.495  67.311  22.315  0.00  0.00    -0.268 OA
BRANCH  24  27
ATOM     27  O   LIG    1      -34.292  68.318  24.835  0.00  0.00    -0.279 OA
BRANCH  27  28
ATOM     28  C   LIG    1      -34.173  69.324  25.849  0.00  0.00    +0.193 C 
BRANCH  28  29
ATOM     29  C   LIG    1      -35.472  70.055  25.912  0.00  0.00    +0.017 C 
ATOM     30  C   LIG    1      -35.567  71.259  26.810  0.00  0.00    +0.006 C 
ATOM     31  C   LIG    1      -36.368  70.027  27.124  0.00  0.00    +0.006 C 
ENDBRANCH  28  29
ENDBRANCH  27  28
ENDBRANCH  24  27
ENDBRANCH   4  23
TORSDOF 6
ENDMDL
MODEL 8
REMARK VINA RESULT:      -4.9      2.271      5.102
REMARK  Name = pdb/CHEMBL3675942.pdb
REMARK                            x       y       z     vdW  Elec       q    Type
REMARK                         _______ _______ _______ _____ _____    ______ ____
ROOT
ATOM      1  C   LIG    1      -20.816  78.020  33.431  0.00  0.00    +0.126 A 
ATOM      2  N   LIG    1      -22.063  77.884  33.004  0.00  0.00    -0.212 NA
ATOM      3  C   LIG    1      -22.274  77.544  31.680  0.00  0.00    +0.170 A 
ATOM      4  C   LIG    1      -23.417  77.293  30.921  0.00  0.00    +0.102 A 
ATOM      5  C   LIG    1      -22.939  77.075  29.613  0.00  0.00    +0.150 A 
ATOM      6  N   LIG    1      -21.620  77.131  29.522  0.00  0.00    -0.173 NA
ATOM      7  N   LIG    1      -21.213  77.392  30.785  0.00  0.00    -0.221 N 
ATOM      8  C   LIG    1      -19.911  77.490  31.224  0.00  0.00    +0.118 A 
ATOM      9  C   LIG    1      -19.650  77.759  32.506  0.00  0.00    +0.063 A 
ENDROOT
BRANCH   1  11
ATOM     10  C   LIG    1      -20.494  79.855  35.176  0.00  0.00    +0.108 C 
ATOM     11  N   LIG    1      -20.548  78.431  34.746  0.00  0.00    -0.308 N 
ATOM     12  C   LIG    1      -19.706  77.627  35.641  0.00  0.00    +0.107 C 
ATOM     13  C   LIG    1      -18.737  78.629  36.250  0.00  0.00    +0.021 C 
ATOM     14  C   LIG    1      -19.600  79.861  36.428  0.00  0.00    +0.029 C 
BRANCH  10  18
ATOM     15  F   LIG    1      -25.383  79.756  35.836  0.00  0.00    -0.205 F 
ATOM     16  C   LIG    1      -24.233  80.440  35.850  0.00  0.00    +0.124 A 
ATOM     17  C   LIG    1      -23.046  79.798  35.483  0.00  0.00    +0.046 A 
ATOM     18  C   LIG    1      -21.830  80.496  35.504  0.00  0.00    +0.011 A 
ATOM     19  C   LIG    1      -21.858  81.835  35.934  0.00  0.00    +0.129 A 
ATOM     20  F   LIG    1      -20.712  82.526  36.019  0.00  0.00    -0.205 F 
ATOM     21  C   LIG    1      -23.045  82.477  36.292  0.00  0.00    +0.041 A 
ATOM     22  C   LIG    1      -24.245  81.774  36.245  0.00  0.00    +0.041 A 
ENDBRANCH  10  18
ENDBRANCH   1  11
BRANCH   4  23
ATOM     23  C   LIG    1      -24.803  77.263  31.302  0.00  0.00    +0.272 C 
ATOM     24  N   LIG    1      -25.029  77.430  32.645  0.00  0.00    -0.190 N 
ATOM     25  H   LIG    1      -24.293  77.805  33.244  0.00  0.00    +0.183 HD
ATOM     26  O   LIG    1      -25.690  77.063  30.462  0.00  0.00    -0.268 OA
BRANCH  24  27
ATOM     27  O   LIG    1      -26.364  77.701  33.021  0.00  0.00    -0.279 OA
BRANCH  27  28
ATOM     28  C   LIG    1      -26.804  76.672  33.914  0.00  0.00    +0.193 C 
BRANCH  28  29
ATOM     29  C   LIG    1      -25.841  76.620  35.053  0.00  0.00    +0.017 C 
ATOM     30  C   LIG    1      -25.742  75.344  35.843  0.00  0.00    +0.006 C 
ATOM     31  C   LIG    1      -26.280  76.587  36.495  0.00  0.00    +0.006 C 
ENDBRANCH  28  29
ENDBRANCH  27  28
ENDBRANCH  24  27
ENDBRANCH   4  23
TORSDOF 6
ENDMDL
MODEL 9
REMARK VINA RESULT:      -4.9     11.813     15.475
REMARK  Name = pdb/CHEMBL3675942.pdb
REMARK                            x       y       z     vdW  Elec       q    Type
REMARK                         _______ _______ _______ _____ _____    ______ ____
ROOT
ATOM      1  C   LIG    1      -32.831  73.594  29.289  0.00  0.00    +0.126 A 
ATOM      2  N   LIG    1      -33.827  74.208  28.667  0.00  0.00    -0.212 NA
ATOM      3  C   LIG    1      -33.667  75.536  28.317  0.00  0.00    +0.170 A 
ATOM      4  C   LIG    1      -34.470  76.457  27.643  0.00  0.00    +0.102 A 
ATOM      5  C   LIG    1      -33.745  77.666  27.687  0.00  0.00    +0.150 A 
ATOM      6  N   LIG    1      -32.570  77.549  28.285  0.00  0.00    -0.173 NA
ATOM      7  N   LIG    1      -32.511  76.247  28.646  0.00  0.00    -0.221 N 
ATOM      8  C   LIG    1      -31.452  75.611  29.256  0.00  0.00    +0.118 A 
ATOM      9  C   LIG    1      -31.531  74.314  29.564  0.00  0.00    +0.063 A 
ENDROOT
BRANCH   1  11
ATOM     10  C   LIG    1      -34.203  71.457  29.547  0.00  0.00    +0.108 C 
ATOM     11  N   LIG    1      -32.967  72.268  29.728  0.00  0.00    -0.308 N 
ATOM     12  C   LIG    1      -32.235  71.773  30.900  0.00  0.00    +0.107 C 
ATOM     13  C   LIG    1      -33.287  71.043  31.723  0.00  0.00    +0.021 C 
ATOM     14  C   LIG    1      -34.150  70.396  30.660  0.00  0.00    +0.029 C 
BRANCH  10  18
ATOM     15  F   LIG    1      -36.181  70.952  25.054  0.00  0.00    -0.205 F 
ATOM     16  C   LIG    1      -35.309  70.538  25.982  0.00  0.00    +0.124 A 
ATOM     17  C   LIG    1      -35.266  71.184  27.221  0.00  0.00    +0.046 A 
ATOM     18  C   LIG    1      -34.350  70.772  28.200  0.00  0.00    +0.011 A 
ATOM     19  C   LIG    1      -33.474  69.722  27.869  0.00  0.00    +0.129 A 
ATOM     20  F   LIG    1      -32.548  69.329  28.756  0.00  0.00    -0.205 F 
ATOM     21  C   LIG    1      -33.524  69.073  26.634  0.00  0.00    +0.041 A 
ATOM     22  C   LIG    1      -34.454  69.482  25.683  0.00  0.00    +0.041 A 
ENDBRANCH  10  18
ENDBRANCH   1  11
BRANCH   4  23
ATOM     23  C   LIG    1      -35.762  76.300  27.032  0.00  0.00    +0.272 C 
ATOM     24  N   LIG    1      -36.281  75.033  27.116  0.00  0.00    -0.190 N 
ATOM     25  H   LIG    1      -35.893  74.365  27.784  0.00  0.00    +0.183 HD
ATOM     26  O   LIG    1      -36.312  77.245  26.454  0.00  0.00    -0.268 OA
BRANCH  24  27
ATOM     27  O   LIG    1      -37.651  74.901  26.799  0.00  0.00    -0.279 OA
BRANCH  27  28
ATOM     28  C   LIG    1      -37.869  73.597  26.246  0.00  0.00    +0.193 C 
BRANCH  28  29
ATOM     29  C   LIG    1      -38.280  73.774  24.823  0.00  0.00    +0.017 C 
ATOM     30  C   LIG    1      -39.313  74.821  24.506  0.00  0.00    +0.006 C 
ATOM     31  C   LIG    1      -39.638  73.367  24.307  0.00  0.00    +0.006 C 
ENDBRANCH  28  29
ENDBRANCH  27  28
ENDBRANCH  24  27
ENDBRANCH   4  23
TORSDOF 6
ENDMDL
