MODEL 1
REMARK VINA RESULT:      -6.0      0.000      0.000
REMARK  Name = pdb/CHEMBL3326006.pdb
REMARK                            x       y       z     vdW  Elec       q    Type
REMARK                         _______ _______ _______ _____ _____    ______ ____
ROOT
ATOM      1  C   LIG    1      -36.672  77.165  26.815  0.00  0.00    +0.217 A 
ATOM      2  N   LIG    1      -37.632  77.919  26.254  0.00  0.00    -0.196 NA
ATOM      3  C   LIG    1      -38.570  77.241  25.587  0.00  0.00    +0.147 A 
ATOM      4  N   LIG    1      -39.659  77.764  24.915  0.00  0.00    -0.328 N 
ATOM      5  C   LIG    1      -40.358  76.728  24.323  0.00  0.00    +0.097 A 
ATOM      6  C   LIG    1      -39.735  75.524  24.626  0.00  0.00    +0.010 A 
ATOM      7  C   LIG    1      -38.613  75.855  25.447  0.00  0.00    +0.045 A 
ATOM      8  C   LIG    1      -37.602  75.162  26.105  0.00  0.00    +0.126 A 
ATOM      9  N   LIG    1      -36.640  75.822  26.774  0.00  0.00    -0.222 NA
ENDROOT
BRANCH   4  10
ATOM     10  C   LIG    1      -40.059  79.181  24.799  0.00  0.00    +0.089 C 
ATOM     11  C   LIG    1      -39.510  79.802  23.495  0.00  0.00    +0.027 C 
ATOM     12  C   LIG    1      -39.983  81.235  23.251  0.00  0.00    +0.033 C 
ATOM     13  C   LIG    1      -41.500  81.353  23.333  0.00  0.00    +0.115 C 
ATOM     14  C   LIG    1      -42.001  80.863  24.684  0.00  0.00    +0.033 C 
ATOM     15  C   LIG    1      -41.575  79.424  24.927  0.00  0.00    +0.027 C 
BRANCH  13  16
ATOM     16  O   LIG    1      -41.892  82.706  23.138  0.00  0.00    -0.392 OA
ATOM     17  H   LIG    1      -41.281  83.113  22.503  0.00  0.00    +0.210 HD
ENDBRANCH  13  16
ENDBRANCH   4  10
BRANCH   6  18
ATOM     18  C   LIG    1      -40.201  74.229  24.127  0.00  0.00    -0.016 A 
ATOM     19  C   LIG    1      -41.432  74.104  23.467  0.00  0.00    +0.009 A 
ATOM     20  C   LIG    1      -41.908  72.849  23.053  0.00  0.00    +0.005 A 
ATOM     21  C   LIG    1      -41.153  71.687  23.272  0.00  0.00    -0.033 A 
ATOM     22  C   LIG    1      -39.891  71.827  23.862  0.00  0.00    +0.005 A 
ATOM     23  C   LIG    1      -39.435  73.071  24.311  0.00  0.00    +0.009 A 
BRANCH  21  24
ATOM     24  C   LIG    1      -41.689  70.323  22.857  0.00  0.00    +0.119 C 
BRANCH  24  25
ATOM     25  N   LIG    1      -41.410  69.951  21.446  0.00  0.00    -0.296 NA
ATOM     26  C   LIG    1      -42.451  69.057  20.896  0.00  0.00    +0.100 C 
ATOM     27  C   LIG    1      -42.534  67.680  21.596  0.00  0.00    +0.099 C 
ATOM     28  N   LIG    1      -41.259  66.948  21.725  0.00  0.00    -0.303 NA
ATOM     29  C   LIG    1      -41.026  66.070  20.586  0.00  0.00    +0.105 C 
ATOM     30  C   LIG    1      -40.105  67.836  21.977  0.00  0.00    +0.099 C 
ATOM     31  C   LIG    1      -40.130  69.227  21.303  0.00  0.00    +0.100 C 
ENDBRANCH  24  25
ENDBRANCH  21  24
ENDBRANCH   6  18
BRANCH   1  32
ATOM     32  N   LIG    1      -35.653  77.853  27.450  0.00  0.00    -0.313 N 
ATOM     33  H   LIG    1      -35.060  78.242  26.724  0.00  0.00    +0.149 HD
BRANCH  32  34
ATOM     34  C   LIG    1      -34.947  77.125  28.509  0.00  0.00    +0.104 C 
BRANCH  34  35
ATOM     35  C   LIG    1      -33.420  77.196  28.357  0.00  0.00    +0.018 C 
BRANCH  35  37
ATOM     36  C   LIG    1      -32.345  78.845  26.681  0.00  0.00    +0.004 C 
ATOM     37  C   LIG    1      -32.890  77.447  26.933  0.00  0.00    -0.002 C 
ENDBRANCH  35  37
ENDBRANCH  34  35
ENDBRANCH  32  34
ENDBRANCH   1  32
TORSDOF 9
ENDMDL
MODEL 2
REMARK VINA RESULT:      -6.0      1.356      2.144
REMARK  Name = pdb/CHEMBL3326006.pdb
REMARK                            x       y       z     vdW  Elec       q    Type
REMARK                         _______ _______ _______ _____ _____    ______ ____
ROOT
ATOM      1  C   LIG    1      -36.653  76.765  26.743  0.00  0.00    +0.217 A 
ATOM      2  N   LIG    1      -37.486  77.659  26.184  0.00  0.00    -0.196 NA
ATOM      3  C   LIG    1      -38.534  77.135  25.544  0.00  0.00    +0.147 A 
ATOM      4  N   LIG    1      -39.535  77.820  24.880  0.00  0.00    -0.328 N 
ATOM      5  C   LIG    1      -40.406  76.905  24.317  0.00  0.00    +0.097 A 
ATOM      6  C   LIG    1      -39.984  75.620  24.632  0.00  0.00    +0.010 A 
ATOM      7  C   LIG    1      -38.808  75.773  25.429  0.00  0.00    +0.045 A 
ATOM      8  C   LIG    1      -37.913  74.933  26.084  0.00  0.00    +0.126 A 
ATOM      9  N   LIG    1      -36.843  75.435  26.726  0.00  0.00    -0.222 NA
ENDROOT
BRANCH   4  10
ATOM     10  C   LIG    1      -39.698  79.282  24.745  0.00  0.00    +0.089 C 
ATOM     11  C   LIG    1      -39.450  79.731  23.287  0.00  0.00    +0.027 C 
ATOM     12  C   LIG    1      -39.716  81.216  23.049  0.00  0.00    +0.033 C 
ATOM     13  C   LIG    1      -41.099  81.630  23.535  0.00  0.00    +0.115 C 
ATOM     14  C   LIG    1      -41.266  81.303  25.012  0.00  0.00    +0.033 C 
ATOM     15  C   LIG    1      -41.046  79.820  25.263  0.00  0.00    +0.027 C 
BRANCH  13  16
ATOM     16  O   LIG    1      -41.290  83.024  23.328  0.00  0.00    -0.392 OA
ATOM     17  H   LIG    1      -42.154  83.273  23.695  0.00  0.00    +0.210 HD
ENDBRANCH  13  16
ENDBRANCH   4  10
BRANCH   6  18
ATOM     18  C   LIG    1      -40.666  74.412  24.164  0.00  0.00    -0.016 A 
ATOM     19  C   LIG    1      -39.982  73.195  24.031  0.00  0.00    +0.009 A 
ATOM     20  C   LIG    1      -40.623  72.056  23.514  0.00  0.00    +0.005 A 
ATOM     21  C   LIG    1      -41.973  72.102  23.136  0.00  0.00    -0.033 A 
ATOM     22  C   LIG    1      -42.671  73.297  23.343  0.00  0.00    +0.005 A 
ATOM     23  C   LIG    1      -42.023  74.442  23.819  0.00  0.00    +0.009 A 
BRANCH  21  24
ATOM     24  C   LIG    1      -42.654  70.877  22.539  0.00  0.00    +0.119 C 
BRANCH  24  25
ATOM     25  N   LIG    1      -42.209  70.529  21.165  0.00  0.00    -0.296 NA
ATOM     26  C   LIG    1      -42.610  71.556  20.180  0.00  0.00    +0.100 C 
ATOM     27  C   LIG    1      -44.140  71.704  20.010  0.00  0.00    +0.099 C 
ATOM     28  N   LIG    1      -44.882  70.452  19.762  0.00  0.00    -0.303 NA
ATOM     29  C   LIG    1      -45.007  70.175  18.336  0.00  0.00    +0.105 C 
ATOM     30  C   LIG    1      -44.328  69.296  20.498  0.00  0.00    +0.099 C 
ATOM     31  C   LIG    1      -42.796  69.258  20.694  0.00  0.00    +0.100 C 
ENDBRANCH  24  25
ENDBRANCH  21  24
ENDBRANCH   6  18
BRANCH   1  32
ATOM     32  N   LIG    1      -35.524  77.285  27.351  0.00  0.00    -0.313 N 
ATOM     33  H   LIG    1      -35.409  78.232  27.002  0.00  0.00    +0.149 HD
BRANCH  32  34
ATOM     34  C   LIG    1      -34.319  76.450  27.294  0.00  0.00    +0.104 C 
BRANCH  34  35
ATOM     35  C   LIG    1      -33.202  76.961  28.216  0.00  0.00    +0.018 C 
BRANCH  35  37
ATOM     36  C   LIG    1      -32.269  78.547  26.401  0.00  0.00    +0.004 C 
ATOM     37  C   LIG    1      -32.612  78.340  27.869  0.00  0.00    -0.002 C 
ENDBRANCH  35  37
ENDBRANCH  34  35
ENDBRANCH  32  34
ENDBRANCH   1  32
TORSDOF 9
ENDMDL
MODEL 3
REMARK VINA RESULT:      -5.9      4.118      6.346
REMARK  Name = pdb/CHEMBL3326006.pdb
REMARK                            x       y       z     vdW  Elec       q    Type
REMARK                         _______ _______ _______ _____ _____    ______ ____
ROOT
ATOM      1  C   LIG    1      -36.526  76.934  26.832  0.00  0.00    +0.217 A 
ATOM      2  N   LIG    1      -36.221  75.736  27.360  0.00  0.00    -0.196 NA
ATOM      3  C   LIG    1      -36.893  74.703  26.847  0.00  0.00    +0.147 A 
ATOM      4  N   LIG    1      -36.781  73.372  27.208  0.00  0.00    -0.328 N 
ATOM      5  C   LIG    1      -37.682  72.631  26.468  0.00  0.00    +0.097 A 
ATOM      6  C   LIG    1      -38.371  73.476  25.607  0.00  0.00    +0.010 A 
ATOM      7  C   LIG    1      -37.850  74.786  25.837  0.00  0.00    +0.045 A 
ATOM      8  C   LIG    1      -38.058  76.062  25.324  0.00  0.00    +0.126 A 
ATOM      9  N   LIG    1      -37.401  77.122  25.830  0.00  0.00    -0.222 NA
ENDROOT
BRANCH   4  10
ATOM     10  C   LIG    1      -35.878  72.779  28.216  0.00  0.00    +0.089 C 
ATOM     11  C   LIG    1      -36.234  71.295  28.466  0.00  0.00    +0.027 C 
ATOM     12  C   LIG    1      -35.268  70.584  29.411  0.00  0.00    +0.033 C 
ATOM     13  C   LIG    1      -33.819  70.746  28.969  0.00  0.00    +0.115 C 
ATOM     14  C   LIG    1      -33.453  72.220  28.866  0.00  0.00    +0.033 C 
ATOM     15  C   LIG    1      -34.380  72.938  27.897  0.00  0.00    +0.027 C 
BRANCH  13  16
ATOM     16  O   LIG    1      -32.953  70.102  29.895  0.00  0.00    -0.392 OA
ATOM     17  H   LIG    1      -32.634  70.765  30.528  0.00  0.00    +0.210 HD
ENDBRANCH  13  16
ENDBRANCH   4  10
BRANCH   6  18
ATOM     18  C   LIG    1      -39.426  73.017  24.701  0.00  0.00    -0.016 A 
ATOM     19  C   LIG    1      -40.392  73.902  24.201  0.00  0.00    +0.009 A 
ATOM     20  C   LIG    1      -41.444  73.444  23.390  0.00  0.00    +0.005 A 
ATOM     21  C   LIG    1      -41.543  72.088  23.042  0.00  0.00    -0.033 A 
ATOM     22  C   LIG    1      -40.534  71.223  23.480  0.00  0.00    +0.005 A 
ATOM     23  C   LIG    1      -39.510  71.672  24.321  0.00  0.00    +0.009 A 
BRANCH  21  24
ATOM     24  C   LIG    1      -42.707  71.588  22.195  0.00  0.00    +0.119 C 
BRANCH  24  25
ATOM     25  N   LIG    1      -42.733  72.115  20.807  0.00  0.00    -0.296 NA
ATOM     26  C   LIG    1      -43.882  73.018  20.582  0.00  0.00    +0.100 C 
ATOM     27  C   LIG    1      -45.261  72.327  20.705  0.00  0.00    +0.099 C 
ATOM     28  N   LIG    1      -45.431  71.090  19.918  0.00  0.00    -0.303 NA
ATOM     29  C   LIG    1      -45.973  71.366  18.593  0.00  0.00    +0.105 C 
ATOM     30  C   LIG    1      -44.200  70.275  19.847  0.00  0.00    +0.099 C 
ATOM     31  C   LIG    1      -42.857  71.037  19.803  0.00  0.00    +0.100 C 
ENDBRANCH  24  25
ENDBRANCH  21  24
ENDBRANCH   6  18
BRANCH   1  32
ATOM     32  N   LIG    1      -35.891  78.026  27.398  0.00  0.00    -0.313 N 
ATOM     33  H   LIG    1      -35.876  78.757  26.693  0.00  0.00    +0.149 HD
BRANCH  32  34
ATOM     34  C   LIG    1      -34.604  77.759  28.047  0.00  0.00    +0.104 C 
BRANCH  34  35
ATOM     35  C   LIG    1      -33.708  79.005  28.118  0.00  0.00    +0.018 C 
BRANCH  35  37
ATOM     36  C   LIG    1      -32.191  77.812  26.399  0.00  0.00    +0.004 C 
ATOM     37  C   LIG    1      -32.625  79.125  27.031  0.00  0.00    -0.002 C 
ENDBRANCH  35  37
ENDBRANCH  34  35
ENDBRANCH  32  34
ENDBRANCH   1  32
TORSDOF 9
ENDMDL
MODEL 4
REMARK VINA RESULT:      -5.8      3.276      5.333
REMARK  Name = pdb/CHEMBL3326006.pdb
REMARK                            x       y       z     vdW  Elec       q    Type
REMARK                         _______ _______ _______ _____ _____    ______ ____
ROOT
ATOM      1  C   LIG    1      -37.732  79.567  27.187  0.00  0.00    +0.217 A 
ATOM      2  N   LIG    1      -36.909  78.535  27.438  0.00  0.00    -0.196 NA
ATOM      3  C   LIG    1      -37.244  77.385  26.846  0.00  0.00    +0.147 A 
ATOM      4  N   LIG    1      -36.582  76.175  26.938  0.00  0.00    -0.328 N 
ATOM      5  C   LIG    1      -37.279  75.228  26.211  0.00  0.00    +0.097 A 
ATOM      6  C   LIG    1      -38.388  75.826  25.626  0.00  0.00    +0.010 A 
ATOM      7  C   LIG    1      -38.348  77.200  26.016  0.00  0.00    +0.045 A 
ATOM      8  C   LIG    1      -39.109  78.340  25.780  0.00  0.00    +0.126 A 
ATOM      9  N   LIG    1      -38.799  79.508  26.372  0.00  0.00    -0.222 NA
ENDROOT
BRANCH   4  10
ATOM     10  C   LIG    1      -35.341  75.874  27.680  0.00  0.00    +0.089 C 
ATOM     11  C   LIG    1      -34.164  76.725  27.151  0.00  0.00    +0.027 C 
ATOM     12  C   LIG    1      -32.873  76.552  27.950  0.00  0.00    +0.033 C 
ATOM     13  C   LIG    1      -33.096  76.769  29.442  0.00  0.00    +0.115 C 
ATOM     14  C   LIG    1      -34.163  75.819  29.966  0.00  0.00    +0.033 C 
ATOM     15  C   LIG    1      -35.469  76.006  29.210  0.00  0.00    +0.027 C 
BRANCH  13  16
ATOM     16  O   LIG    1      -31.881  76.562  30.150  0.00  0.00    -0.392 OA
ATOM     17  H   LIG    1      -31.660  77.379  30.626  0.00  0.00    +0.210 HD
ENDBRANCH  13  16
ENDBRANCH   4  10
BRANCH   6  18
ATOM     18  C   LIG    1      -39.361  75.094  24.813  0.00  0.00    -0.016 A 
ATOM     19  C   LIG    1      -40.428  75.754  24.186  0.00  0.00    +0.009 A 
ATOM     20  C   LIG    1      -41.400  75.039  23.465  0.00  0.00    +0.005 A 
ATOM     21  C   LIG    1      -41.315  73.645  23.336  0.00  0.00    -0.033 A 
ATOM     22  C   LIG    1      -40.206  73.000  23.897  0.00  0.00    +0.005 A 
ATOM     23  C   LIG    1      -39.262  73.707  24.650  0.00  0.00    +0.009 A 
BRANCH  21  24
ATOM     24  C   LIG    1      -42.390  72.867  22.587  0.00  0.00    +0.119 C 
BRANCH  24  25
ATOM     25  N   LIG    1      -42.075  71.433  22.366  0.00  0.00    -0.296 NA
ATOM     26  C   LIG    1      -42.112  71.076  20.931  0.00  0.00    +0.100 C 
ATOM     27  C   LIG    1      -43.509  71.218  20.281  0.00  0.00    +0.099 C 
ATOM     28  N   LIG    1      -44.618  70.554  20.994  0.00  0.00    -0.303 NA
ATOM     29  C   LIG    1      -44.819  69.189  20.523  0.00  0.00    +0.105 C 
ATOM     30  C   LIG    1      -44.478  70.611  22.463  0.00  0.00    +0.099 C 
ATOM     31  C   LIG    1      -43.044  70.540  23.035  0.00  0.00    +0.100 C 
ENDBRANCH  24  25
ENDBRANCH  21  24
ENDBRANCH   6  18
BRANCH   1  32
ATOM     32  N   LIG    1      -37.442  80.749  27.846  0.00  0.00    -0.313 N 
ATOM     33  H   LIG    1      -38.241  81.362  27.720  0.00  0.00    +0.149 HD
BRANCH  32  34
ATOM     34  C   LIG    1      -36.140  81.352  27.545  0.00  0.00    +0.104 C 
BRANCH  34  35
ATOM     35  C   LIG    1      -35.272  81.540  28.798  0.00  0.00    +0.018 C 
BRANCH  35  37
ATOM     36  C   LIG    1      -34.929  79.705  30.586  0.00  0.00    +0.004 C 
ATOM     37  C   LIG    1      -34.476  80.308  29.265  0.00  0.00    -0.002 C 
ENDBRANCH  35  37
ENDBRANCH  34  35
ENDBRANCH  32  34
ENDBRANCH   1  32
TORSDOF 9
ENDMDL
MODEL 5
REMARK VINA RESULT:      -5.8      4.683      7.170
REMARK  Name = pdb/CHEMBL3326006.pdb
REMARK                            x       y       z     vdW  Elec       q    Type
REMARK                         _______ _______ _______ _____ _____    ______ ____
ROOT
ATOM      1  C   LIG    1      -37.261  76.604  26.102  0.00  0.00    +0.217 A 
ATOM      2  N   LIG    1      -37.175  75.269  25.963  0.00  0.00    -0.196 NA
ATOM      3  C   LIG    1      -38.171  74.705  25.276  0.00  0.00    +0.147 A 
ATOM      4  N   LIG    1      -38.333  73.361  24.993  0.00  0.00    -0.328 N 
ATOM      5  C   LIG    1      -39.516  73.191  24.298  0.00  0.00    +0.097 A 
ATOM      6  C   LIG    1      -40.118  74.429  24.110  0.00  0.00    +0.010 A 
ATOM      7  C   LIG    1      -39.248  75.388  24.713  0.00  0.00    +0.045 A 
ATOM      8  C   LIG    1      -39.219  76.770  24.870  0.00  0.00    +0.126 A 
ATOM      9  N   LIG    1      -38.233  77.362  25.567  0.00  0.00    -0.222 NA
ENDROOT
BRANCH   4  10
ATOM     10  C   LIG    1      -37.437  72.244  25.353  0.00  0.00    +0.089 C 
ATOM     11  C   LIG    1      -37.670  71.803  26.817  0.00  0.00    +0.027 C 
ATOM     12  C   LIG    1      -36.859  70.574  27.223  0.00  0.00    +0.033 C 
ATOM     13  C   LIG    1      -37.057  69.417  26.252  0.00  0.00    +0.115 C 
ATOM     14  C   LIG    1      -36.686  69.838  24.837  0.00  0.00    +0.033 C 
ATOM     15  C   LIG    1      -37.513  71.037  24.398  0.00  0.00    +0.027 C 
BRANCH  13  16
ATOM     16  O   LIG    1      -36.257  68.309  26.646  0.00  0.00    -0.392 OA
ATOM     17  H   LIG    1      -35.450  68.306  26.107  0.00  0.00    +0.210 HD
ENDBRANCH  13  16
ENDBRANCH   4  10
BRANCH   6  18
ATOM     18  C   LIG    1      -41.406  74.602  23.436  0.00  0.00    -0.016 A 
ATOM     19  C   LIG    1      -42.171  73.498  23.032  0.00  0.00    +0.009 A 
ATOM     20  C   LIG    1      -43.372  73.668  22.323  0.00  0.00    +0.005 A 
ATOM     21  C   LIG    1      -43.848  74.952  22.018  0.00  0.00    -0.033 A 
ATOM     22  C   LIG    1      -43.122  76.051  22.490  0.00  0.00    +0.005 A 
ATOM     23  C   LIG    1      -41.905  75.881  23.160  0.00  0.00    +0.009 A 
BRANCH  21  24
ATOM     24  C   LIG    1      -45.131  75.133  21.214  0.00  0.00    +0.119 C 
BRANCH  24  25
ATOM     25  N   LIG    1      -45.030  74.726  19.789  0.00  0.00    -0.296 NA
ATOM     26  C   LIG    1      -44.561  75.835  18.931  0.00  0.00    +0.100 C 
ATOM     27  C   LIG    1      -45.530  77.039  18.870  0.00  0.00    +0.099 C 
ATOM     28  N   LIG    1      -46.935  76.716  18.550  0.00  0.00    -0.303 NA
ATOM     29  C   LIG    1      -47.185  76.767  17.116  0.00  0.00    +0.105 C 
ATOM     30  C   LIG    1      -47.382  75.437  19.140  0.00  0.00    +0.099 C 
ATOM     31  C   LIG    1      -46.335  74.305  19.237  0.00  0.00    +0.100 C 
ENDBRANCH  24  25
ENDBRANCH  21  24
ENDBRANCH   6  18
BRANCH   1  32
ATOM     32  N   LIG    1      -36.276  77.199  26.870  0.00  0.00    -0.313 N 
ATOM     33  H   LIG    1      -36.146  78.139  26.508  0.00  0.00    +0.149 HD
BRANCH  32  34
ATOM     34  C   LIG    1      -35.043  76.425  27.050  0.00  0.00    +0.104 C 
BRANCH  34  35
ATOM     35  C   LIG    1      -34.105  77.043  28.098  0.00  0.00    +0.018 C 
BRANCH  35  37
ATOM     36  C   LIG    1      -32.252  77.873  26.499  0.00  0.00    +0.004 C 
ATOM     37  C   LIG    1      -33.226  78.212  27.617  0.00  0.00    -0.002 C 
ENDBRANCH  35  37
ENDBRANCH  34  35
ENDBRANCH  32  34
ENDBRANCH   1  32
TORSDOF 9
ENDMDL
MODEL 6
REMARK VINA RESULT:      -5.7      1.942      2.555
REMARK  Name = pdb/CHEMBL3326006.pdb
REMARK                            x       y       z     vdW  Elec       q    Type
REMARK                         _______ _______ _______ _____ _____    ______ ____
ROOT
ATOM      1  C   LIG    1      -37.844  78.957  27.236  0.00  0.00    +0.217 A 
ATOM      2  N   LIG    1      -38.623  79.252  26.180  0.00  0.00    -0.196 NA
ATOM      3  C   LIG    1      -39.045  78.200  25.475  0.00  0.00    +0.147 A 
ATOM      4  N   LIG    1      -39.845  78.218  24.347  0.00  0.00    -0.328 N 
ATOM      5  C   LIG    1      -40.013  76.922  23.897  0.00  0.00    +0.097 A 
ATOM      6  C   LIG    1      -39.336  76.053  24.745  0.00  0.00    +0.010 A 
ATOM      7  C   LIG    1      -38.743  76.869  25.756  0.00  0.00    +0.045 A 
ATOM      8  C   LIG    1      -37.972  76.666  26.896  0.00  0.00    +0.126 A 
ATOM      9  N   LIG    1      -37.525  77.709  27.618  0.00  0.00    -0.222 NA
ENDROOT
BRANCH   4  10
ATOM     10  C   LIG    1      -40.443  79.391  23.678  0.00  0.00    +0.089 C 
ATOM     11  C   LIG    1      -41.550  80.020  24.555  0.00  0.00    +0.027 C 
ATOM     12  C   LIG    1      -42.133  81.308  23.978  0.00  0.00    +0.033 C 
ATOM     13  C   LIG    1      -41.046  82.320  23.636  0.00  0.00    +0.115 C 
ATOM     14  C   LIG    1      -40.046  81.719  22.659  0.00  0.00    +0.033 C 
ATOM     15  C   LIG    1      -39.423  80.457  23.234  0.00  0.00    +0.027 C 
BRANCH  13  16
ATOM     16  O   LIG    1      -41.629  83.486  23.068  0.00  0.00    -0.392 OA
ATOM     17  H   LIG    1      -40.918  84.039  22.707  0.00  0.00    +0.210 HD
ENDBRANCH  13  16
ENDBRANCH   4  10
BRANCH   6  18
ATOM     18  C   LIG    1      -39.282  74.605  24.536  0.00  0.00    -0.016 A 
ATOM     19  C   LIG    1      -40.359  73.912  23.963  0.00  0.00    +0.009 A 
ATOM     20  C   LIG    1      -40.331  72.513  23.830  0.00  0.00    +0.005 A 
ATOM     21  C   LIG    1      -39.215  71.775  24.247  0.00  0.00    -0.033 A 
ATOM     22  C   LIG    1      -38.112  72.478  24.746  0.00  0.00    +0.005 A 
ATOM     23  C   LIG    1      -38.156  73.866  24.917  0.00  0.00    +0.009 A 
BRANCH  21  24
ATOM     24  C   LIG    1      -39.203  70.255  24.137  0.00  0.00    +0.119 C 
BRANCH  24  25
ATOM     25  N   LIG    1      -37.851  69.654  24.006  0.00  0.00    -0.296 NA
ATOM     26  C   LIG    1      -37.509  69.371  22.596  0.00  0.00    +0.100 C 
ATOM     27  C   LIG    1      -38.414  68.310  21.927  0.00  0.00    +0.099 C 
ATOM     28  N   LIG    1      -38.575  67.045  22.669  0.00  0.00    -0.303 NA
ATOM     29  C   LIG    1      -37.571  66.063  22.280  0.00  0.00    +0.105 C 
ATOM     30  C   LIG    1      -38.617  67.235  24.134  0.00  0.00    +0.099 C 
ATOM     31  C   LIG    1      -37.742  68.365  24.720  0.00  0.00    +0.100 C 
ENDBRANCH  24  25
ENDBRANCH  21  24
ENDBRANCH   6  18
BRANCH   1  32
ATOM     32  N   LIG    1      -37.340  80.037  27.938  0.00  0.00    -0.313 N 
ATOM     33  H   LIG    1      -37.385  80.841  27.319  0.00  0.00    +0.149 HD
BRANCH  32  34
ATOM     34  C   LIG    1      -36.046  79.829  28.597  0.00  0.00    +0.104 C 
BRANCH  34  35
ATOM     35  C   LIG    1      -34.904  80.594  27.909  0.00  0.00    +0.018 C 
BRANCH  35  37
ATOM     36  C   LIG    1      -33.759  78.278  27.833  0.00  0.00    +0.004 C 
ATOM     37  C   LIG    1      -33.664  79.765  27.530  0.00  0.00    -0.002 C 
ENDBRANCH  35  37
ENDBRANCH  34  35
ENDBRANCH  32  34
ENDBRANCH   1  32
TORSDOF 9
ENDMDL
MODEL 7
REMARK VINA RESULT:      -5.7      5.286      9.480
REMARK  Name = pdb/CHEMBL3326006.pdb
REMARK                            x       y       z     vdW  Elec       q    Type
REMARK                         _______ _______ _______ _____ _____    ______ ____
ROOT
ATOM      1  C   LIG    1      -35.737  68.568  23.904  0.00  0.00    +0.217 A 
ATOM      2  N   LIG    1      -35.365  69.201  25.030  0.00  0.00    -0.196 NA
ATOM      3  C   LIG    1      -36.071  70.296  25.324  0.00  0.00    +0.147 A 
ATOM      4  N   LIG    1      -35.898  71.134  26.410  0.00  0.00    -0.328 N 
ATOM      5  C   LIG    1      -36.804  72.175  26.321  0.00  0.00    +0.097 A 
ATOM      6  C   LIG    1      -37.583  72.005  25.183  0.00  0.00    +0.010 A 
ATOM      7  C   LIG    1      -37.128  70.800  24.567  0.00  0.00    +0.045 A 
ATOM      8  C   LIG    1      -37.465  70.045  23.448  0.00  0.00    +0.126 A 
ATOM      9  N   LIG    1      -36.764  68.944  23.124  0.00  0.00    -0.222 NA
ENDROOT
BRANCH   4  10
ATOM     10  C   LIG    1      -34.921  71.003  27.511  0.00  0.00    +0.089 C 
ATOM     11  C   LIG    1      -34.394  72.390  27.945  0.00  0.00    +0.027 C 
ATOM     12  C   LIG    1      -33.467  72.341  29.158  0.00  0.00    +0.033 C 
ATOM     13  C   LIG    1      -34.097  71.590  30.325  0.00  0.00    +0.115 C 
ATOM     14  C   LIG    1      -34.481  70.178  29.907  0.00  0.00    +0.033 C 
ATOM     15  C   LIG    1      -35.437  70.207  28.725  0.00  0.00    +0.027 C 
BRANCH  13  16
ATOM     16  O   LIG    1      -33.188  71.537  31.416  0.00  0.00    -0.392 OA
ATOM     17  H   LIG    1      -33.688  71.671  32.238  0.00  0.00    +0.210 HD
ENDBRANCH  13  16
ENDBRANCH   4  10
BRANCH   6  18
ATOM     18  C   LIG    1      -38.622  72.951  24.772  0.00  0.00    -0.016 A 
ATOM     19  C   LIG    1      -39.817  72.510  24.185  0.00  0.00    +0.009 A 
ATOM     20  C   LIG    1      -40.780  73.425  23.727  0.00  0.00    +0.005 A 
ATOM     21  C   LIG    1      -40.580  74.806  23.864  0.00  0.00    -0.033 A 
ATOM     22  C   LIG    1      -39.422  75.239  24.520  0.00  0.00    +0.005 A 
ATOM     23  C   LIG    1      -38.444  74.330  24.939  0.00  0.00    +0.009 A 
BRANCH  21  24
ATOM     24  C   LIG    1      -41.609  75.797  23.332  0.00  0.00    +0.119 C 
BRANCH  24  25
ATOM     25  N   LIG    1      -42.952  75.689  23.956  0.00  0.00    -0.296 NA
ATOM     26  C   LIG    1      -43.946  75.109  23.027  0.00  0.00    +0.100 C 
ATOM     27  C   LIG    1      -44.224  75.978  21.778  0.00  0.00    +0.099 C 
ATOM     28  N   LIG    1      -44.547  77.394  22.041  0.00  0.00    -0.303 NA
ATOM     29  C   LIG    1      -45.982  77.599  22.189  0.00  0.00    +0.105 C 
ATOM     30  C   LIG    1      -43.793  77.958  23.179  0.00  0.00    +0.099 C 
ATOM     31  C   LIG    1      -43.487  77.007  24.358  0.00  0.00    +0.100 C 
ENDBRANCH  24  25
ENDBRANCH  21  24
ENDBRANCH   6  18
BRANCH   1  32
ATOM     32  N   LIG    1      -34.973  67.471  23.545  0.00  0.00    -0.313 N 
ATOM     33  H   LIG    1      -34.054  67.602  23.956  0.00  0.00    +0.149 HD
BRANCH  32  34
ATOM     34  C   LIG    1      -34.975  67.123  22.121  0.00  0.00    +0.104 C 
BRANCH  34  35
ATOM     35  C   LIG    1      -34.430  65.711  21.857  0.00  0.00    +0.018 C 
BRANCH  35  37
ATOM     36  C   LIG    1      -32.624  66.411  20.145  0.00  0.00    +0.004 C 
ATOM     37  C   LIG    1      -33.779  65.480  20.481  0.00  0.00    -0.002 C 
ENDBRANCH  35  37
ENDBRANCH  34  35
ENDBRANCH  32  34
ENDBRANCH   1  32
TORSDOF 9
ENDMDL
MODEL 8
REMARK VINA RESULT:      -5.6      2.594      5.099
REMARK  Name = pdb/CHEMBL3326006.pdb
REMARK                            x       y       z     vdW  Elec       q    Type
REMARK                         _______ _______ _______ _____ _____    ______ ____
ROOT
ATOM      1  C   LIG    1      -39.729  79.135  25.123  0.00  0.00    +0.217 A 
ATOM      2  N   LIG    1      -38.675  78.694  25.831  0.00  0.00    -0.196 NA
ATOM      3  C   LIG    1      -38.426  77.387  25.724  0.00  0.00    +0.147 A 
ATOM      4  N   LIG    1      -37.416  76.676  26.346  0.00  0.00    -0.328 N 
ATOM      5  C   LIG    1      -37.534  75.341  26.005  0.00  0.00    +0.097 A 
ATOM      6  C   LIG    1      -38.612  75.183  25.143  0.00  0.00    +0.010 A 
ATOM      7  C   LIG    1      -39.160  76.488  24.951  0.00  0.00    +0.045 A 
ATOM      8  C   LIG    1      -40.200  77.051  24.219  0.00  0.00    +0.126 A 
ATOM      9  N   LIG    1      -40.478  78.364  24.317  0.00  0.00    -0.222 NA
ENDROOT
BRANCH   4  10
ATOM     10  C   LIG    1      -36.363  77.192  27.244  0.00  0.00    +0.089 C 
ATOM     11  C   LIG    1      -36.860  77.231  28.707  0.00  0.00    +0.027 C 
ATOM     12  C   LIG    1      -35.783  77.645  29.709  0.00  0.00    +0.033 C 
ATOM     13  C   LIG    1      -34.522  76.803  29.567  0.00  0.00    +0.115 C 
ATOM     14  C   LIG    1      -33.975  76.894  28.150  0.00  0.00    +0.033 C 
ATOM     15  C   LIG    1      -35.019  76.446  27.140  0.00  0.00    +0.027 C 
BRANCH  13  16
ATOM     16  O   LIG    1      -33.536  77.245  30.491  0.00  0.00    -0.392 OA
ATOM     17  H   LIG    1      -33.633  76.734  31.311  0.00  0.00    +0.210 HD
ENDBRANCH  13  16
ENDBRANCH   4  10
BRANCH   6  18
ATOM     18  C   LIG    1      -39.036  73.885  24.615  0.00  0.00    -0.016 A 
ATOM     19  C   LIG    1      -40.267  73.733  23.960  0.00  0.00    +0.009 A 
ATOM     20  C   LIG    1      -40.701  72.472  23.518  0.00  0.00    +0.005 A 
ATOM     21  C   LIG    1      -39.903  71.333  23.702  0.00  0.00    -0.033 A 
ATOM     22  C   LIG    1      -38.643  71.503  24.286  0.00  0.00    +0.005 A 
ATOM     23  C   LIG    1      -38.228  72.751  24.763  0.00  0.00    +0.009 A 
BRANCH  21  24
ATOM     24  C   LIG    1      -40.394  69.961  23.256  0.00  0.00    +0.119 C 
BRANCH  24  25
ATOM     25  N   LIG    1      -40.394  69.751  21.786  0.00  0.00    -0.296 NA
ATOM     26  C   LIG    1      -41.578  68.987  21.339  0.00  0.00    +0.100 C 
ATOM     27  C   LIG    1      -41.639  67.541  21.884  0.00  0.00    +0.099 C 
ATOM     28  N   LIG    1      -40.418  66.733  21.696  0.00  0.00    -0.303 NA
ATOM     29  C   LIG    1      -40.453  65.990  20.443  0.00  0.00    +0.105 C 
ATOM     30  C   LIG    1      -39.176  67.522  21.831  0.00  0.00    +0.099 C 
ATOM     31  C   LIG    1      -39.215  68.983  21.332  0.00  0.00    +0.100 C 
ENDBRANCH  24  25
ENDBRANCH  21  24
ENDBRANCH   6  18
BRANCH   1  32
ATOM     32  N   LIG    1      -40.046  80.473  25.275  0.00  0.00    -0.313 N 
ATOM     33  H   LIG    1      -41.059  80.543  25.244  0.00  0.00    +0.149 HD
BRANCH  32  34
ATOM     34  C   LIG    1      -39.330  81.408  24.401  0.00  0.00    +0.104 C 
BRANCH  34  35
ATOM     35  C   LIG    1      -38.843  82.659  25.148  0.00  0.00    +0.018 C 
BRANCH  35  37
ATOM     36  C   LIG    1      -36.453  83.614  25.375  0.00  0.00    +0.004 C 
ATOM     37  C   LIG    1      -37.680  83.429  24.496  0.00  0.00    -0.002 C 
ENDBRANCH  35  37
ENDBRANCH  34  35
ENDBRANCH  32  34
ENDBRANCH   1  32
TORSDOF 9
ENDMDL
MODEL 9
REMARK VINA RESULT:      -5.6      4.113     10.027
REMARK  Name = pdb/CHEMBL3326006.pdb
REMARK                            x       y       z     vdW  Elec       q    Type
REMARK                         _______ _______ _______ _____ _____    ______ ____
ROOT
ATOM      1  C   LIG    1      -38.690  71.636  24.817  0.00  0.00    +0.217 A 
ATOM      2  N   LIG    1      -39.819  71.583  24.090  0.00  0.00    -0.196 NA
ATOM      3  C   LIG    1      -40.366  72.767  23.805  0.00  0.00    +0.147 A 
ATOM      4  N   LIG    1      -41.523  73.000  23.083  0.00  0.00    -0.328 N 
ATOM      5  C   LIG    1      -41.765  74.361  23.054  0.00  0.00    +0.097 A 
ATOM      6  C   LIG    1      -40.753  75.020  23.741  0.00  0.00    +0.010 A 
ATOM      7  C   LIG    1      -39.857  74.005  24.196  0.00  0.00    +0.045 A 
ATOM      8  C   LIG    1      -38.660  73.954  24.902  0.00  0.00    +0.126 A 
ATOM      9  N   LIG    1      -38.093  72.774  25.212  0.00  0.00    -0.222 NA
ENDROOT
BRANCH   4  10
ATOM     10  C   LIG    1      -42.405  72.007  22.437  0.00  0.00    +0.089 C 
ATOM     11  C   LIG    1      -43.417  72.700  21.496  0.00  0.00    +0.027 C 
ATOM     12  C   LIG    1      -44.285  71.725  20.704  0.00  0.00    +0.033 C 
ATOM     13  C   LIG    1      -43.446  70.692  19.962  0.00  0.00    +0.115 C 
ATOM     14  C   LIG    1      -42.559  69.926  20.933  0.00  0.00    +0.033 C 
ATOM     15  C   LIG    1      -41.657  70.878  21.703  0.00  0.00    +0.027 C 
BRANCH  13  16
ATOM     16  O   LIG    1      -44.293  69.784  19.269  0.00  0.00    -0.392 OA
ATOM     17  H   LIG    1      -44.350  68.964  19.786  0.00  0.00    +0.210 HD
ENDBRANCH  13  16
ENDBRANCH   4  10
BRANCH   6  18
ATOM     18  C   LIG    1      -40.721  76.472  23.928  0.00  0.00    -0.016 A 
ATOM     19  C   LIG    1      -41.869  77.182  24.307  0.00  0.00    +0.009 A 
ATOM     20  C   LIG    1      -41.853  78.582  24.417  0.00  0.00    +0.005 A 
ATOM     21  C   LIG    1      -40.677  79.307  24.170  0.00  0.00    -0.033 A 
ATOM     22  C   LIG    1      -39.515  78.588  23.867  0.00  0.00    +0.005 A 
ATOM     23  C   LIG    1      -39.542  77.197  23.718  0.00  0.00    +0.009 A 
BRANCH  21  24
ATOM     24  C   LIG    1      -40.672  80.829  24.251  0.00  0.00    +0.119 C 
BRANCH  24  25
ATOM     25  N   LIG    1      -39.681  81.491  23.364  0.00  0.00    -0.296 NA
ATOM     26  C   LIG    1      -38.835  82.452  24.104  0.00  0.00    +0.100 C 
ATOM     27  C   LIG    1      -39.611  83.651  24.697  0.00  0.00    +0.099 C 
ATOM     28  N   LIG    1      -40.489  84.375  23.756  0.00  0.00    -0.303 NA
ATOM     29  C   LIG    1      -39.788  85.476  23.108  0.00  0.00    +0.105 C 
ATOM     30  C   LIG    1      -41.141  83.486  22.773  0.00  0.00    +0.099 C 
ATOM     31  C   LIG    1      -40.330  82.265  22.284  0.00  0.00    +0.100 C 
ENDBRANCH  24  25
ENDBRANCH  21  24
ENDBRANCH   6  18
BRANCH   1  32
ATOM     32  N   LIG    1      -38.146  70.418  25.182  0.00  0.00    -0.313 N 
ATOM     33  H   LIG    1      -37.192  70.597  25.482  0.00  0.00    +0.149 HD
BRANCH  32  34
ATOM     34  C   LIG    1      -38.300  69.327  24.215  0.00  0.00    +0.104 C 
BRANCH  34  35
ATOM     35  C   LIG    1      -37.030  69.092  23.382  0.00  0.00    +0.018 C 
BRANCH  35  37
ATOM     36  C   LIG    1      -38.686  68.905  21.406  0.00  0.00    +0.004 C 
ATOM     37  C   LIG    1      -37.237  68.895  21.869  0.00  0.00    -0.002 C 
ENDBRANCH  35  37
ENDBRANCH  34  35
ENDBRANCH  32  34
ENDBRANCH   1  32
TORSDOF 9
ENDMDL
