MODEL 1
REMARK VINA RESULT:      -6.5      0.000      0.000
REMARK  Name = pdb/CHEMBL3675934.pdb
REMARK                            x       y       z     vdW  Elec       q    Type
REMARK                         _______ _______ _______ _____ _____    ______ ____
ROOT
ATOM      1  C   LIG    1      -18.212  84.732  12.975  0.00  0.00    +0.100 A 
ATOM      2  C   LIG    1      -18.688  83.477  13.334  0.00  0.00    +0.170 A 
ATOM      3  N   LIG    1      -19.749  83.054  14.105  0.00  0.00    -0.212 NA
ATOM      4  C   LIG    1      -19.940  81.753  14.245  0.00  0.00    +0.126 A 
ATOM      5  C   LIG    1      -18.982  80.739  13.658  0.00  0.00    +0.063 A 
ATOM      6  C   LIG    1      -17.983  81.201  12.902  0.00  0.00    +0.118 A 
ATOM      7  N   LIG    1      -17.827  82.561  12.713  0.00  0.00    -0.221 N 
ATOM      8  N   LIG    1      -16.877  83.160  11.965  0.00  0.00    -0.173 NA
ATOM      9  C   LIG    1      -17.111  84.459  12.129  0.00  0.00    +0.150 A 
ENDROOT
BRANCH   4  10
ATOM     10  N   LIG    1      -21.053  81.284  14.945  0.00  0.00    -0.308 N 
ATOM     11  C   LIG    1      -22.267  82.114  15.118  0.00  0.00    +0.108 C 
ATOM     12  C   LIG    1      -22.672  81.895  16.580  0.00  0.00    +0.029 C 
ATOM     13  C   LIG    1      -22.211  80.478  16.860  0.00  0.00    +0.021 C 
ATOM     14  C   LIG    1      -20.886  80.403  16.110  0.00  0.00    +0.107 C 
BRANCH  11  15
ATOM     15  C   LIG    1      -23.379  81.756  14.153  0.00  0.00    +0.011 A 
ATOM     16  C   LIG    1      -23.471  82.474  12.951  0.00  0.00    +0.129 A 
ATOM     17  F   LIG    1      -22.592  83.455  12.700  0.00  0.00    -0.205 F 
ATOM     18  C   LIG    1      -24.449  82.200  11.997  0.00  0.00    +0.041 A 
ATOM     19  C   LIG    1      -25.382  81.197  12.242  0.00  0.00    +0.041 A 
ATOM     20  C   LIG    1      -25.329  80.498  13.444  0.00  0.00    +0.124 A 
ATOM     21  F   LIG    1      -26.242  79.549  13.690  0.00  0.00    -0.205 F 
ATOM     22  C   LIG    1      -24.343  80.765  14.396  0.00  0.00    +0.046 A 
ENDBRANCH  11  15
ENDBRANCH   4  10
BRANCH   1  25
ATOM     23  N   LIG    1      -19.821  86.183  14.036  0.00  0.00    -0.309 N 
ATOM     24  H   LIG    1      -20.263  85.317  14.332  0.00  0.00    +0.149 HD
ATOM     25  C   LIG    1      -18.647  86.076  13.321  0.00  0.00    +0.249 C 
ATOM     26  O   LIG    1      -17.976  87.046  13.000  0.00  0.00    -0.270 OA
BRANCH  23  27
ATOM     27  C   LIG    1      -20.281  87.470  14.565  0.00  0.00    +0.125 C 
BRANCH  27  29
ATOM     28  C   LIG    1      -22.364  86.070  14.995  0.00  0.00    +0.029 C 
ATOM     29  C   LIG    1      -21.665  87.411  15.278  0.00  0.00    +0.026 C 
ATOM     30  C   LIG    1      -22.578  88.541  14.779  0.00  0.00    +0.029 C 
BRANCH  29  31
ATOM     31  N   LIG    1      -21.486  87.501  16.734  0.00  0.00    -0.324 NA
ATOM     32  H   LIG    1      -21.560  88.473  17.032  0.00  0.00    +0.119 HD
ATOM     33  H   LIG    1      -22.197  86.966  17.227  0.00  0.00    +0.119 HD
ENDBRANCH  29  31
ENDBRANCH  27  29
ENDBRANCH  23  27
ENDBRANCH   1  25
TORSDOF 6
ENDMDL
MODEL 2
REMARK VINA RESULT:      -6.1     18.668     21.841
REMARK  Name = pdb/CHEMBL3675934.pdb
REMARK                            x       y       z     vdW  Elec       q    Type
REMARK                         _______ _______ _______ _____ _____    ______ ____
ROOT
ATOM      1  C   LIG    1      -25.844  77.626  33.157  0.00  0.00    +0.100 A 
ATOM      2  C   LIG    1      -25.265  78.305  34.222  0.00  0.00    +0.170 A 
ATOM      3  N   LIG    1      -24.109  79.043  34.356  0.00  0.00    -0.212 NA
ATOM      4  C   LIG    1      -23.844  79.581  35.535  0.00  0.00    +0.126 A 
ATOM      5  C   LIG    1      -24.723  79.331  36.741  0.00  0.00    +0.063 A 
ATOM      6  C   LIG    1      -25.842  78.627  36.552  0.00  0.00    +0.118 A 
ATOM      7  N   LIG    1      -26.140  78.119  35.302  0.00  0.00    -0.221 N 
ATOM      8  N   LIG    1      -27.237  77.407  34.969  0.00  0.00    -0.173 NA
ATOM      9  C   LIG    1      -27.052  77.113  33.686  0.00  0.00    +0.150 A 
ENDROOT
BRANCH   4  10
ATOM     10  N   LIG    1      -22.730  80.408  35.688  0.00  0.00    -0.308 N 
ATOM     11  C   LIG    1      -21.564  79.997  36.503  0.00  0.00    +0.108 C 
ATOM     12  C   LIG    1      -21.192  81.254  37.297  0.00  0.00    +0.029 C 
ATOM     13  C   LIG    1      -21.590  82.383  36.366  0.00  0.00    +0.021 C 
ATOM     14  C   LIG    1      -22.887  81.868  35.753  0.00  0.00    +0.107 C 
BRANCH  11  15
ATOM     15  C   LIG    1      -20.407  79.476  35.674  0.00  0.00    +0.011 A 
ATOM     16  C   LIG    1      -19.327  78.881  36.343  0.00  0.00    +0.129 A 
ATOM     17  F   LIG    1      -19.340  78.805  37.682  0.00  0.00    -0.205 F 
ATOM     18  C   LIG    1      -18.231  78.358  35.660  0.00  0.00    +0.041 A 
ATOM     19  C   LIG    1      -18.186  78.439  34.272  0.00  0.00    +0.041 A 
ATOM     20  C   LIG    1      -19.232  79.057  33.594  0.00  0.00    +0.124 A 
ATOM     21  F   LIG    1      -19.178  79.157  32.259  0.00  0.00    -0.205 F 
ATOM     22  C   LIG    1      -20.336  79.573  34.276  0.00  0.00    +0.046 A 
ENDBRANCH  11  15
ENDBRANCH   4  10
BRANCH   1  25
ATOM     23  N   LIG    1      -24.182  77.932  31.435  0.00  0.00    -0.309 N 
ATOM     24  H   LIG    1      -23.632  78.359  32.174  0.00  0.00    +0.149 HD
ATOM     25  C   LIG    1      -25.412  77.415  31.784  0.00  0.00    +0.249 C 
ATOM     26  O   LIG    1      -26.115  76.791  31.003  0.00  0.00    -0.270 OA
BRANCH  23  27
ATOM     27  C   LIG    1      -23.580  77.658  30.127  0.00  0.00    +0.125 C 
BRANCH  27  29
ATOM     28  C   LIG    1      -22.896  75.226  30.448  0.00  0.00    +0.029 C 
ATOM     29  C   LIG    1      -22.392  76.652  30.168  0.00  0.00    +0.026 C 
ATOM     30  C   LIG    1      -21.399  77.035  31.276  0.00  0.00    +0.029 C 
BRANCH  29  31
ATOM     31  N   LIG    1      -21.715  76.616  28.863  0.00  0.00    -0.324 NA
ATOM     32  H   LIG    1      -21.851  77.503  28.379  0.00  0.00    +0.119 HD
ATOM     33  H   LIG    1      -20.715  76.467  28.970  0.00  0.00    +0.119 HD
ENDBRANCH  29  31
ENDBRANCH  27  29
ENDBRANCH  23  27
ENDBRANCH   1  25
TORSDOF 6
ENDMDL
MODEL 3
REMARK VINA RESULT:      -6.0     14.741     17.162
REMARK  Name = pdb/CHEMBL3675934.pdb
REMARK                            x       y       z     vdW  Elec       q    Type
REMARK                         _______ _______ _______ _____ _____    ______ ____
ROOT
ATOM      1  C   LIG    1      -31.298  94.138  23.080  0.00  0.00    +0.100 A 
ATOM      2  C   LIG    1      -31.817  93.776  21.843  0.00  0.00    +0.170 A 
ATOM      3  N   LIG    1      -32.859  92.961  21.458  0.00  0.00    -0.212 NA
ATOM      4  C   LIG    1      -33.107  92.832  20.165  0.00  0.00    +0.126 A 
ATOM      5  C   LIG    1      -32.230  93.480  19.117  0.00  0.00    +0.063 A 
ATOM      6  C   LIG    1      -31.247  94.278  19.544  0.00  0.00    +0.118 A 
ATOM      7  N   LIG    1      -31.033  94.452  20.898  0.00  0.00    -0.221 N 
ATOM      8  N   LIG    1      -30.092  95.236  21.464  0.00  0.00    -0.173 NA
ATOM      9  C   LIG    1      -30.253  95.040  22.769  0.00  0.00    +0.150 A 
ENDROOT
BRANCH   4  10
ATOM     10  N   LIG    1      -34.208  92.086  19.738  0.00  0.00    -0.308 N 
ATOM     11  C   LIG    1      -34.707  92.167  18.347  0.00  0.00    +0.108 C 
ATOM     12  C   LIG    1      -36.232  92.219  18.492  0.00  0.00    +0.029 C 
ATOM     13  C   LIG    1      -36.488  91.411  19.749  0.00  0.00    +0.021 C 
ATOM     14  C   LIG    1      -35.328  91.819  20.650  0.00  0.00    +0.107 C 
BRANCH  11  15
ATOM     15  C   LIG    1      -34.250  91.012  17.478  0.00  0.00    +0.011 A 
ATOM     16  C   LIG    1      -34.326  91.159  16.085  0.00  0.00    +0.129 A 
ATOM     17  F   LIG    1      -34.809  92.298  15.567  0.00  0.00    -0.205 F 
ATOM     18  C   LIG    1      -33.910  90.157  15.211  0.00  0.00    +0.041 A 
ATOM     19  C   LIG    1      -33.421  88.960  15.724  0.00  0.00    +0.041 A 
ATOM     20  C   LIG    1      -33.371  88.782  17.104  0.00  0.00    +0.124 A 
ATOM     21  F   LIG    1      -32.922  87.620  17.597  0.00  0.00    -0.205 F 
ATOM     22  C   LIG    1      -33.778  89.789  17.981  0.00  0.00    +0.046 A 
ENDBRANCH  11  15
ENDBRANCH   4  10
BRANCH   1  25
ATOM     23  N   LIG    1      -32.332  92.561  24.585  0.00  0.00    -0.309 N 
ATOM     24  H   LIG    1      -32.480  92.005  23.747  0.00  0.00    +0.149 HD
ATOM     25  C   LIG    1      -31.649  93.749  24.437  0.00  0.00    +0.249 C 
ATOM     26  O   LIG    1      -31.326  94.450  25.385  0.00  0.00    -0.270 OA
BRANCH  23  27
ATOM     27  C   LIG    1      -32.611  91.997  25.909  0.00  0.00    +0.125 C 
BRANCH  27  29
ATOM     28  C   LIG    1      -34.948  92.822  25.328  0.00  0.00    +0.029 C 
ATOM     29  C   LIG    1      -34.125  91.925  26.267  0.00  0.00    +0.026 C 
ATOM     30  C   LIG    1      -34.361  92.398  27.709  0.00  0.00    +0.029 C 
BRANCH  29  31
ATOM     31  N   LIG    1      -34.621  90.553  26.090  0.00  0.00    -0.324 NA
ATOM     32  H   LIG    1      -34.692  90.336  25.097  0.00  0.00    +0.119 HD
ATOM     33  H   LIG    1      -33.992  89.876  26.515  0.00  0.00    +0.119 HD
ENDBRANCH  29  31
ENDBRANCH  27  29
ENDBRANCH  23  27
ENDBRANCH   1  25
TORSDOF 6
ENDMDL
MODEL 4
REMARK VINA RESULT:      -6.0     17.984     20.711
REMARK  Name = pdb/CHEMBL3675934.pdb
REMARK                            x       y       z     vdW  Elec       q    Type
REMARK                         _______ _______ _______ _____ _____    ______ ____
ROOT
ATOM      1  C   LIG    1      -21.342  77.371  30.540  0.00  0.00    +0.100 A 
ATOM      2  C   LIG    1      -20.570  77.821  31.604  0.00  0.00    +0.170 A 
ATOM      3  N   LIG    1      -20.878  78.383  32.824  0.00  0.00    -0.212 NA
ATOM      4  C   LIG    1      -19.882  78.699  33.636  0.00  0.00    +0.126 A 
ATOM      5  C   LIG    1      -18.436  78.540  33.222  0.00  0.00    +0.063 A 
ATOM      6  C   LIG    1      -18.192  77.970  32.040  0.00  0.00    +0.118 A 
ATOM      7  N   LIG    1      -19.240  77.589  31.224  0.00  0.00    -0.221 N 
ATOM      8  N   LIG    1      -19.138  76.993  30.017  0.00  0.00    -0.173 NA
ATOM      9  C   LIG    1      -20.399  76.869  29.613  0.00  0.00    +0.150 A 
ENDROOT
BRANCH   4  10
ATOM     10  N   LIG    1      -20.155  79.189  34.915  0.00  0.00    -0.308 N 
ATOM     11  C   LIG    1      -21.127  80.283  35.135  0.00  0.00    +0.108 C 
ATOM     12  C   LIG    1      -20.448  81.194  36.165  0.00  0.00    +0.029 C 
ATOM     13  C   LIG    1      -19.613  80.229  36.984  0.00  0.00    +0.021 C 
ATOM     14  C   LIG    1      -19.094  79.258  35.930  0.00  0.00    +0.107 C 
BRANCH  11  15
ATOM     15  C   LIG    1      -22.483  79.794  35.605  0.00  0.00    +0.011 A 
ATOM     16  C   LIG    1      -23.528  80.726  35.700  0.00  0.00    +0.129 A 
ATOM     17  F   LIG    1      -23.296  82.010  35.393  0.00  0.00    -0.205 F 
ATOM     18  C   LIG    1      -24.811  80.361  36.104  0.00  0.00    +0.041 A 
ATOM     19  C   LIG    1      -25.071  79.037  36.445  0.00  0.00    +0.041 A 
ATOM     20  C   LIG    1      -24.039  78.106  36.390  0.00  0.00    +0.124 A 
ATOM     21  F   LIG    1      -24.284  76.837  36.741  0.00  0.00    -0.205 F 
ATOM     22  C   LIG    1      -22.755  78.468  35.976  0.00  0.00    +0.046 A 
ENDBRANCH  11  15
ENDBRANCH   4  10
BRANCH   1  25
ATOM     23  N   LIG    1      -23.584  77.480  31.425  0.00  0.00    -0.309 N 
ATOM     24  H   LIG    1      -23.123  77.630  32.317  0.00  0.00    +0.149 HD
ATOM     25  C   LIG    1      -22.778  77.366  30.311  0.00  0.00    +0.249 C 
ATOM     26  O   LIG    1      -23.224  77.284  29.176  0.00  0.00    -0.270 OA
BRANCH  23  27
ATOM     27  C   LIG    1      -25.037  77.632  31.305  0.00  0.00    +0.125 C 
BRANCH  27  29
ATOM     28  C   LIG    1      -27.362  76.794  31.918  0.00  0.00    +0.029 C 
ATOM     29  C   LIG    1      -25.857  76.486  31.970  0.00  0.00    +0.026 C 
ATOM     30  C   LIG    1      -25.453  76.318  33.442  0.00  0.00    +0.029 C 
BRANCH  29  31
ATOM     31  N   LIG    1      -25.653  75.229  31.235  0.00  0.00    -0.324 NA
ATOM     32  H   LIG    1      -25.453  74.474  31.891  0.00  0.00    +0.119 HD
ATOM     33  H   LIG    1      -26.481  74.973  30.705  0.00  0.00    +0.119 HD
ENDBRANCH  29  31
ENDBRANCH  27  29
ENDBRANCH  23  27
ENDBRANCH   1  25
TORSDOF 6
ENDMDL
MODEL 5
REMARK VINA RESULT:      -5.8      2.683      4.039
REMARK  Name = pdb/CHEMBL3675934.pdb
REMARK                            x       y       z     vdW  Elec       q    Type
REMARK                         _______ _______ _______ _____ _____    ______ ____
ROOT
ATOM      1  C   LIG    1      -19.083  84.562  12.218  0.00  0.00    +0.100 A 
ATOM      2  C   LIG    1      -19.155  83.282  12.752  0.00  0.00    +0.170 A 
ATOM      3  N   LIG    1      -19.818  82.743  13.833  0.00  0.00    -0.212 NA
ATOM      4  C   LIG    1      -19.681  81.450  14.070  0.00  0.00    +0.126 A 
ATOM      5  C   LIG    1      -18.756  80.582  13.245  0.00  0.00    +0.063 A 
ATOM      6  C   LIG    1      -18.154  81.147  12.195  0.00  0.00    +0.118 A 
ATOM      7  N   LIG    1      -18.351  82.487  11.921  0.00  0.00    -0.221 N 
ATOM      8  N   LIG    1      -17.819  83.179  10.891  0.00  0.00    -0.173 NA
ATOM      9  C   LIG    1      -18.259  84.420  11.077  0.00  0.00    +0.150 A 
ENDROOT
BRANCH   4  10
ATOM     10  N   LIG    1      -20.405  80.850  15.102  0.00  0.00    -0.308 N 
ATOM     11  C   LIG    1      -21.119  79.568  14.906  0.00  0.00    +0.108 C 
ATOM     12  C   LIG    1      -22.467  79.772  15.606  0.00  0.00    +0.029 C 
ATOM     13  C   LIG    1      -22.132  80.728  16.733  0.00  0.00    +0.021 C 
ATOM     14  C   LIG    1      -21.128  81.673  16.083  0.00  0.00    +0.107 C 
BRANCH  11  15
ATOM     15  C   LIG    1      -20.362  78.372  15.451  0.00  0.00    +0.011 A 
ATOM     16  C   LIG    1      -20.802  77.089  15.092  0.00  0.00    +0.129 A 
ATOM     17  F   LIG    1      -21.877  76.958  14.300  0.00  0.00    -0.205 F 
ATOM     18  C   LIG    1      -20.156  75.935  15.530  0.00  0.00    +0.041 A 
ATOM     19  C   LIG    1      -19.050  76.046  16.366  0.00  0.00    +0.041 A 
ATOM     20  C   LIG    1      -18.620  77.309  16.761  0.00  0.00    +0.124 A 
ATOM     21  F   LIG    1      -17.569  77.414  17.585  0.00  0.00    -0.205 F 
ATOM     22  C   LIG    1      -19.260  78.466  16.315  0.00  0.00    +0.046 A 
ENDBRANCH  11  15
ENDBRANCH   4  10
BRANCH   1  25
ATOM     23  N   LIG    1      -19.802  86.025  13.997  0.00  0.00    -0.309 N 
ATOM     24  H   LIG    1      -19.426  85.308  14.610  0.00  0.00    +0.149 HD
ATOM     25  C   LIG    1      -19.663  85.828  12.639  0.00  0.00    +0.249 C 
ATOM     26  O   LIG    1      -19.986  86.667  11.812  0.00  0.00    -0.270 OA
BRANCH  23  27
ATOM     27  C   LIG    1      -20.238  87.314  14.543  0.00  0.00    +0.125 C 
BRANCH  27  29
ATOM     28  C   LIG    1      -22.323  85.922  14.988  0.00  0.00    +0.029 C 
ATOM     29  C   LIG    1      -21.639  87.280  15.222  0.00  0.00    +0.026 C 
ATOM     30  C   LIG    1      -22.545  88.378  14.645  0.00  0.00    +0.029 C 
BRANCH  29  31
ATOM     31  N   LIG    1      -21.500  87.442  16.676  0.00  0.00    -0.324 NA
ATOM     32  H   LIG    1      -20.784  86.807  17.028  0.00  0.00    +0.119 HD
ATOM     33  H   LIG    1      -21.223  88.391  16.917  0.00  0.00    +0.119 HD
ENDBRANCH  29  31
ENDBRANCH  27  29
ENDBRANCH  23  27
ENDBRANCH   1  25
TORSDOF 6
ENDMDL
MODEL 6
REMARK VINA RESULT:      -5.7     19.406     22.688
REMARK  Name = pdb/CHEMBL3675934.pdb
REMARK                            x       y       z     vdW  Elec       q    Type
REMARK                         _______ _______ _______ _____ _____    ______ ____
ROOT
ATOM      1  C   LIG    1      -39.307  74.407  24.753  0.00  0.00    +0.100 A 
ATOM      2  C   LIG    1      -38.942  75.382  25.673  0.00  0.00    +0.170 A 
ATOM      3  N   LIG    1      -38.010  75.423  26.688  0.00  0.00    -0.212 NA
ATOM      4  C   LIG    1      -37.902  76.537  27.392  0.00  0.00    +0.126 A 
ATOM      5  C   LIG    1      -38.825  77.714  27.169  0.00  0.00    +0.063 A 
ATOM      6  C   LIG    1      -39.695  77.632  26.159  0.00  0.00    +0.118 A 
ATOM      7  N   LIG    1      -39.760  76.485  25.391  0.00  0.00    -0.221 N 
ATOM      8  N   LIG    1      -40.577  76.274  24.338  0.00  0.00    -0.173 NA
ATOM      9  C   LIG    1      -40.303  75.028  23.964  0.00  0.00    +0.150 A 
ENDROOT
BRANCH   4  10
ATOM     10  N   LIG    1      -36.910  76.649  28.369  0.00  0.00    -0.308 N 
ATOM     11  C   LIG    1      -35.536  76.149  28.141  0.00  0.00    +0.108 C 
ATOM     12  C   LIG    1      -35.161  75.453  29.455  0.00  0.00    +0.029 C 
ATOM     13  C   LIG    1      -35.928  76.244  30.497  0.00  0.00    +0.021 C 
ATOM     14  C   LIG    1      -37.250  76.528  29.794  0.00  0.00    +0.107 C 
BRANCH  11  15
ATOM     15  C   LIG    1      -34.555  77.243  27.769  0.00  0.00    +0.011 A 
ATOM     16  C   LIG    1      -33.363  76.874  27.126  0.00  0.00    +0.129 A 
ATOM     17  F   LIG    1      -33.121  75.579  26.878  0.00  0.00    -0.205 F 
ATOM     18  C   LIG    1      -32.414  77.814  26.731  0.00  0.00    +0.041 A 
ATOM     19  C   LIG    1      -32.635  79.163  26.993  0.00  0.00    +0.041 A 
ATOM     20  C   LIG    1      -33.795  79.544  27.661  0.00  0.00    +0.124 A 
ATOM     21  F   LIG    1      -33.996  80.840  27.935  0.00  0.00    -0.205 F 
ATOM     22  C   LIG    1      -34.751  78.604  28.049  0.00  0.00    +0.046 A 
ENDBRANCH  11  15
ENDBRANCH   4  10
BRANCH   1  25
ATOM     23  N   LIG    1      -37.568  72.746  24.949  0.00  0.00    -0.309 N 
ATOM     24  H   LIG    1      -37.050  73.483  25.419  0.00  0.00    +0.149 HD
ATOM     25  C   LIG    1      -38.855  73.039  24.551  0.00  0.00    +0.249 C 
ATOM     26  O   LIG    1      -39.606  72.204  24.068  0.00  0.00    -0.270 OA
BRANCH  23  27
ATOM     27  C   LIG    1      -37.054  71.374  24.928  0.00  0.00    +0.125 C 
BRANCH  27  29
ATOM     28  C   LIG    1      -36.203  69.644  26.592  0.00  0.00    +0.029 C 
ATOM     29  C   LIG    1      -36.008  71.066  26.040  0.00  0.00    +0.026 C 
ATOM     30  C   LIG    1      -36.152  72.056  27.206  0.00  0.00    +0.029 C 
BRANCH  29  31
ATOM     31  N   LIG    1      -34.648  71.125  25.484  0.00  0.00    -0.324 NA
ATOM     32  H   LIG    1      -34.328  72.092  25.453  0.00  0.00    +0.119 HD
ATOM     33  H   LIG    1      -33.993  70.595  26.053  0.00  0.00    +0.119 HD
ENDBRANCH  29  31
ENDBRANCH  27  29
ENDBRANCH  23  27
ENDBRANCH   1  25
TORSDOF 6
ENDMDL
MODEL 7
REMARK VINA RESULT:      -5.6     22.291     24.772
REMARK  Name = pdb/CHEMBL3675934.pdb
REMARK                            x       y       z     vdW  Elec       q    Type
REMARK                         _______ _______ _______ _____ _____    ______ ____
ROOT
ATOM      1  C   LIG    1      -41.211  69.791  21.535  0.00  0.00    +0.100 A 
ATOM      2  C   LIG    1      -40.382  70.311  22.521  0.00  0.00    +0.170 A 
ATOM      3  N   LIG    1      -40.495  71.380  23.384  0.00  0.00    -0.212 NA
ATOM      4  C   LIG    1      -39.506  71.606  24.232  0.00  0.00    +0.126 A 
ATOM      5  C   LIG    1      -38.236  70.784  24.212  0.00  0.00    +0.063 A 
ATOM      6  C   LIG    1      -38.185  69.748  23.372  0.00  0.00    +0.118 A 
ATOM      7  N   LIG    1      -39.250  69.484  22.531  0.00  0.00    -0.221 N 
ATOM      8  N   LIG    1      -39.338  68.467  21.649  0.00  0.00    -0.173 NA
ATOM      9  C   LIG    1      -40.512  68.658  21.054  0.00  0.00    +0.150 A 
ENDROOT
BRANCH   4  10
ATOM     10  N   LIG    1      -39.621  72.624  25.181  0.00  0.00    -0.308 N 
ATOM     11  C   LIG    1      -38.661  73.749  25.232  0.00  0.00    +0.108 C 
ATOM     12  C   LIG    1      -38.375  73.938  26.726  0.00  0.00    +0.029 C 
ATOM     13  C   LIG    1      -39.676  73.519  27.384  0.00  0.00    +0.021 C 
ATOM     14  C   LIG    1      -40.111  72.330  26.535  0.00  0.00    +0.107 C 
BRANCH  11  15
ATOM     15  C   LIG    1      -39.185  75.014  24.582  0.00  0.00    +0.011 A 
ATOM     16  C   LIG    1      -38.330  76.124  24.506  0.00  0.00    +0.129 A 
ATOM     17  F   LIG    1      -37.094  76.041  25.019  0.00  0.00    -0.205 F 
ATOM     18  C   LIG    1      -38.721  77.321  23.909  0.00  0.00    +0.041 A 
ATOM     19  C   LIG    1      -40.005  77.436  23.384  0.00  0.00    +0.041 A 
ATOM     20  C   LIG    1      -40.878  76.358  23.482  0.00  0.00    +0.124 A 
ATOM     21  F   LIG    1      -42.122  76.478  22.999  0.00  0.00    -0.205 F 
ATOM     22  C   LIG    1      -40.485  75.155  24.072  0.00  0.00    +0.046 A 
ENDBRANCH  11  15
ENDBRANCH   4  10
BRANCH   1  25
ATOM     23  N   LIG    1      -43.382  70.763  21.935  0.00  0.00    -0.309 N 
ATOM     24  H   LIG    1      -43.042  70.896  22.882  0.00  0.00    +0.149 HD
ATOM     25  C   LIG    1      -42.504  70.216  21.023  0.00  0.00    +0.249 C 
ATOM     26  O   LIG    1      -42.768  70.102  19.835  0.00  0.00    -0.270 OA
BRANCH  23  27
ATOM     27  C   LIG    1      -44.653  71.358  21.511  0.00  0.00    +0.125 C 
BRANCH  27  29
ATOM     28  C   LIG    1      -43.506  73.570  22.036  0.00  0.00    +0.029 C 
ATOM     29  C   LIG    1      -44.565  72.874  21.164  0.00  0.00    +0.026 C 
ATOM     30  C   LIG    1      -45.916  73.563  21.411  0.00  0.00    +0.029 C 
BRANCH  29  31
ATOM     31  N   LIG    1      -44.149  73.048  19.765  0.00  0.00    -0.324 NA
ATOM     32  H   LIG    1      -43.131  73.052  19.705  0.00  0.00    +0.119 HD
ATOM     33  H   LIG    1      -44.495  72.292  19.180  0.00  0.00    +0.119 HD
ENDBRANCH  29  31
ENDBRANCH  27  29
ENDBRANCH  23  27
ENDBRANCH   1  25
TORSDOF 6
ENDMDL
MODEL 8
REMARK VINA RESULT:      -5.5     11.073     14.082
REMARK  Name = pdb/CHEMBL3675934.pdb
REMARK                            x       y       z     vdW  Elec       q    Type
REMARK                         _______ _______ _______ _____ _____    ______ ____
ROOT
ATOM      1  C   LIG    1      -23.034  72.621  17.796  0.00  0.00    +0.100 A 
ATOM      2  C   LIG    1      -24.222  72.027  17.388  0.00  0.00    +0.170 A 
ATOM      3  N   LIG    1      -24.943  70.945  17.845  0.00  0.00    -0.212 NA
ATOM      4  C   LIG    1      -26.070  70.639  17.224  0.00  0.00    +0.126 A 
ATOM      5  C   LIG    1      -26.529  71.385  15.990  0.00  0.00    +0.063 A 
ATOM      6  C   LIG    1      -25.805  72.438  15.603  0.00  0.00    +0.118 A 
ATOM      7  N   LIG    1      -24.661  72.786  16.294  0.00  0.00    -0.221 N 
ATOM      8  N   LIG    1      -23.849  73.829  16.022  0.00  0.00    -0.173 NA
ATOM      9  C   LIG    1      -22.876  73.722  16.922  0.00  0.00    +0.150 A 
ENDROOT
BRANCH   4  10
ATOM     10  N   LIG    1      -26.874  69.606  17.710  0.00  0.00    -0.308 N 
ATOM     11  C   LIG    1      -27.803  69.813  18.844  0.00  0.00    +0.108 C 
ATOM     12  C   LIG    1      -27.631  68.560  19.711  0.00  0.00    +0.029 C 
ATOM     13  C   LIG    1      -27.289  67.483  18.700  0.00  0.00    +0.021 C 
ATOM     14  C   LIG    1      -26.384  68.220  17.720  0.00  0.00    +0.107 C 
BRANCH  11  15
ATOM     15  C   LIG    1      -29.240  70.020  18.410  0.00  0.00    +0.011 A 
ATOM     16  C   LIG    1      -29.671  71.328  18.144  0.00  0.00    +0.129 A 
ATOM     17  F   LIG    1      -28.814  72.349  18.295  0.00  0.00    -0.205 F 
ATOM     18  C   LIG    1      -30.969  71.609  17.722  0.00  0.00    +0.041 A 
ATOM     19  C   LIG    1      -31.881  70.569  17.574  0.00  0.00    +0.041 A 
ATOM     20  C   LIG    1      -31.482  69.269  17.866  0.00  0.00    +0.124 A 
ATOM     21  F   LIG    1      -32.368  68.271  17.747  0.00  0.00    -0.205 F 
ATOM     22  C   LIG    1      -30.179  68.985  18.280  0.00  0.00    +0.046 A 
ENDBRANCH  11  15
ENDBRANCH   4  10
BRANCH   1  25
ATOM     23  N   LIG    1      -20.800  71.987  18.452  0.00  0.00    -0.309 N 
ATOM     24  H   LIG    1      -20.584  72.091  17.465  0.00  0.00    +0.149 HD
ATOM     25  C   LIG    1      -22.087  72.285  18.848  0.00  0.00    +0.249 C 
ATOM     26  O   LIG    1      -22.434  72.294  20.020  0.00  0.00    -0.270 OA
BRANCH  23  27
ATOM     27  C   LIG    1      -19.728  71.777  19.429  0.00  0.00    +0.125 C 
BRANCH  27  29
ATOM     28  C   LIG    1      -18.745  73.783  18.207  0.00  0.00    +0.029 C 
ATOM     29  C   LIG    1      -18.441  72.611  19.155  0.00  0.00    +0.026 C 
ATOM     30  C   LIG    1      -17.359  71.737  18.504  0.00  0.00    +0.029 C 
BRANCH  29  31
ATOM     31  N   LIG    1      -17.942  73.195  20.409  0.00  0.00    -0.324 NA
ATOM     32  H   LIG    1      -17.677  72.452  21.055  0.00  0.00    +0.119 HD
ATOM     33  H   LIG    1      -17.123  73.776  20.245  0.00  0.00    +0.119 HD
ENDBRANCH  29  31
ENDBRANCH  27  29
ENDBRANCH  23  27
ENDBRANCH   1  25
TORSDOF 6
ENDMDL
MODEL 9
REMARK VINA RESULT:      -5.4     19.978     22.379
REMARK  Name = pdb/CHEMBL3675934.pdb
REMARK                            x       y       z     vdW  Elec       q    Type
REMARK                         _______ _______ _______ _____ _____    ______ ____
ROOT
ATOM      1  C   LIG    1      -35.559  70.518  25.830  0.00  0.00    +0.100 A 
ATOM      2  C   LIG    1      -34.821  70.877  26.951  0.00  0.00    +0.170 A 
ATOM      3  N   LIG    1      -34.791  72.007  27.740  0.00  0.00    -0.212 NA
ATOM      4  C   LIG    1      -33.958  72.029  28.767  0.00  0.00    +0.126 A 
ATOM      5  C   LIG    1      -32.993  70.896  29.036  0.00  0.00    +0.063 A 
ATOM      6  C   LIG    1      -33.078  69.816  28.255  0.00  0.00    +0.118 A 
ATOM      7  N   LIG    1      -33.993  69.778  27.220  0.00  0.00    -0.221 N 
ATOM      8  N   LIG    1      -34.195  68.751  26.368  0.00  0.00    -0.173 NA
ATOM      9  C   LIG    1      -35.130  69.201  25.537  0.00  0.00    +0.150 A 
ENDROOT
BRANCH   4  10
ATOM     10  N   LIG    1      -33.960  73.118  29.641  0.00  0.00    -0.308 N 
ATOM     11  C   LIG    1      -32.845  74.091  29.671  0.00  0.00    +0.108 C 
ATOM     12  C   LIG    1      -32.599  74.342  31.164  0.00  0.00    +0.029 C 
ATOM     13  C   LIG    1      -33.974  74.166  31.776  0.00  0.00    +0.021 C 
ATOM     14  C   LIG    1      -34.546  72.997  30.984  0.00  0.00    +0.107 C 
BRANCH  11  15
ATOM     15  C   LIG    1      -33.145  75.369  28.915  0.00  0.00    +0.011 A 
ATOM     16  C   LIG    1      -32.094  76.275  28.699  0.00  0.00    +0.129 A 
ATOM     17  F   LIG    1      -30.873  75.994  29.178  0.00  0.00    -0.205 F 
ATOM     18  C   LIG    1      -32.275  77.465  27.997  0.00  0.00    +0.041 A 
ATOM     19  C   LIG    1      -33.536  77.785  27.506  0.00  0.00    +0.041 A 
ATOM     20  C   LIG    1      -34.597  76.916  27.740  0.00  0.00    +0.124 A 
ATOM     21  F   LIG    1      -35.817  77.237  27.287  0.00  0.00    -0.205 F 
ATOM     22  C   LIG    1      -34.416  75.719  28.435  0.00  0.00    +0.046 A 
ENDBRANCH  11  15
ENDBRANCH   4  10
BRANCH   1  25
ATOM     23  N   LIG    1      -37.144  72.328  25.645  0.00  0.00    -0.309 N 
ATOM     24  H   LIG    1      -36.790  72.603  26.557  0.00  0.00    +0.149 HD
ATOM     25  C   LIG    1      -36.556  71.232  25.048  0.00  0.00    +0.249 C 
ATOM     26  O   LIG    1      -36.829  70.870  23.913  0.00  0.00    -0.270 OA
BRANCH  23  27
ATOM     27  C   LIG    1      -38.052  73.207  24.904  0.00  0.00    +0.125 C 
BRANCH  27  29
ATOM     28  C   LIG    1      -37.876  74.612  27.020  0.00  0.00    +0.029 C 
ATOM     29  C   LIG    1      -38.206  74.630  25.519  0.00  0.00    +0.026 C 
ATOM     30  C   LIG    1      -39.647  75.137  25.352  0.00  0.00    +0.029 C 
BRANCH  29  31
ATOM     31  N   LIG    1      -37.260  75.559  24.884  0.00  0.00    -0.324 NA
ATOM     32  H   LIG    1      -36.874  75.137  24.040  0.00  0.00    +0.119 HD
ATOM     33  H   LIG    1      -37.716  76.428  24.620  0.00  0.00    +0.119 HD
ENDBRANCH  29  31
ENDBRANCH  27  29
ENDBRANCH  23  27
ENDBRANCH   1  25
TORSDOF 6
ENDMDL
