MODEL 1
REMARK VINA RESULT:      -6.1      0.000      0.000
REMARK  Name = pdb/CHEMBL3659502.pdb
REMARK                            x       y       z     vdW  Elec       q    Type
REMARK                         _______ _______ _______ _____ _____    ______ ____
ROOT
ATOM      1  N   LIG    1      -40.181  78.796  24.058  0.00  0.00    -0.266 N 
ATOM      2  C   LIG    1      -39.494  77.630  24.343  0.00  0.00    +0.168 A 
ATOM      3  N   LIG    1      -38.231  77.488  24.801  0.00  0.00    -0.211 NA
ATOM      4  C   LIG    1      -37.864  76.210  25.075  0.00  0.00    +0.140 A 
ATOM      5  C   LIG    1      -38.705  75.104  24.800  0.00  0.00    +0.083 A 
ATOM      6 CL   LIG    1      -38.235  73.480  25.171  0.00  0.00    -0.080 Cl
ATOM      7  C   LIG    1      -39.992  75.294  24.287  0.00  0.00    +0.055 A 
ATOM      8  C   LIG    1      -40.401  76.610  24.079  0.00  0.00    +0.110 A 
ATOM      9  N   LIG    1      -41.605  77.100  23.662  0.00  0.00    -0.234 NA
ATOM     10  C   LIG    1      -41.451  78.406  23.682  0.00  0.00    +0.207 A 
ENDROOT
BRANCH   1  15
ATOM     11  C   LIG    1      -38.996  82.123  24.782  0.00  0.00    +0.213 A 
ATOM     12  N   LIG    1      -38.987  81.976  23.424  0.00  0.00    -0.245 N 
ATOM     13  H   LIG    1      -38.720  82.677  22.734  0.00  0.00    +0.192 HD
ATOM     14  N   LIG    1      -39.414  80.775  22.995  0.00  0.00    -0.153 NA
ATOM     15  C   LIG    1      -39.721  80.138  24.131  0.00  0.00    +0.165 A 
ATOM     16  C   LIG    1      -39.517  80.932  25.268  0.00  0.00    +0.115 A 
BRANCH  11  17
ATOM     17  O   LIG    1      -38.558  83.244  25.340  0.00  0.00    -0.474 OA
BRANCH  17  19
ATOM     18  C   LIG    1      -37.302  85.243  24.682  0.00  0.00    +0.051 C 
ATOM     19  C   LIG    1      -37.290  83.729  24.883  0.00  0.00    +0.169 C 
ATOM     20  C   LIG    1      -36.259  83.347  25.940  0.00  0.00    +0.051 C 
ENDBRANCH  17  19
ENDBRANCH  11  17
ENDBRANCH   1  15
BRANCH   4  21
ATOM     21  N   LIG    1      -36.570  76.009  25.605  0.00  0.00    -0.320 N 
ATOM     22  H   LIG    1      -36.194  75.101  25.340  0.00  0.00    +0.148 HD
BRANCH  21  23
ATOM     23  C   LIG    1      -36.446  76.248  27.057  0.00  0.00    +0.117 C 
ATOM     24  C   LIG    1      -36.517  74.943  27.869  0.00  0.00    +0.034 C 
BRANCH  23  25
ATOM     25  C   LIG    1      -35.137  76.985  27.366  0.00  0.00    +0.061 A 
ATOM     26  N   LIG    1      -35.183  78.323  27.617  0.00  0.00    -0.255 NA
ATOM     27  C   LIG    1      -34.001  78.966  27.794  0.00  0.00    +0.149 A 
ATOM     28  C   LIG    1      -32.774  78.333  27.755  0.00  0.00    +0.141 A 
ATOM     29  F   LIG    1      -31.640  79.026  27.919  0.00  0.00    -0.204 F 
ATOM     30  C   LIG    1      -32.733  76.967  27.534  0.00  0.00    +0.042 A 
ATOM     31  C   LIG    1      -33.930  76.278  27.343  0.00  0.00    +0.028 A 
ENDBRANCH  23  25
ENDBRANCH  21  23
ENDBRANCH   4  21
TORSDOF 6
ENDMDL
MODEL 2
REMARK VINA RESULT:      -5.9     13.745     17.805
REMARK  Name = pdb/CHEMBL3659502.pdb
REMARK                            x       y       z     vdW  Elec       q    Type
REMARK                         _______ _______ _______ _____ _____    ______ ____
ROOT
ATOM      1  N   LIG    1      -21.861  77.262  30.596  0.00  0.00    -0.266 N 
ATOM      2  C   LIG    1      -20.892  77.753  31.453  0.00  0.00    +0.168 A 
ATOM      3  N   LIG    1      -21.053  78.514  32.557  0.00  0.00    -0.211 NA
ATOM      4  C   LIG    1      -19.912  78.763  33.250  0.00  0.00    +0.140 A 
ATOM      5  C   LIG    1      -18.639  78.345  32.790  0.00  0.00    +0.083 A 
ATOM      6 CL   LIG    1      -17.194  78.651  33.691  0.00  0.00    -0.080 Cl
ATOM      7  C   LIG    1      -18.514  77.592  31.619  0.00  0.00    +0.055 A 
ATOM      8  C   LIG    1      -19.691  77.267  30.948  0.00  0.00    +0.110 A 
ATOM      9  N   LIG    1      -19.885  76.497  29.836  0.00  0.00    -0.234 NA
ATOM     10  C   LIG    1      -21.189  76.494  29.665  0.00  0.00    +0.207 A 
ENDROOT
BRANCH   1  15
ATOM     11  C   LIG    1      -25.408  77.546  31.170  0.00  0.00    +0.213 A 
ATOM     12  N   LIG    1      -25.124  78.249  30.033  0.00  0.00    -0.245 N 
ATOM     13  H   LIG    1      -25.786  78.745  29.439  0.00  0.00    +0.192 HD
ATOM     14  N   LIG    1      -23.826  78.231  29.683  0.00  0.00    -0.153 NA
ATOM     15  C   LIG    1      -23.265  77.471  30.630  0.00  0.00    +0.165 A 
ATOM     16  C   LIG    1      -24.198  76.988  31.559  0.00  0.00    +0.115 A 
BRANCH  11  17
ATOM     17  O   LIG    1      -26.644  77.518  31.652  0.00  0.00    -0.474 OA
BRANCH  17  19
ATOM     18  C   LIG    1      -27.696  77.120  33.829  0.00  0.00    +0.051 C 
ATOM     19  C   LIG    1      -26.912  76.533  32.658  0.00  0.00    +0.169 C 
ATOM     20  C   LIG    1      -27.715  75.421  31.991  0.00  0.00    +0.051 C 
ENDBRANCH  17  19
ENDBRANCH  11  17
ENDBRANCH   1  15
BRANCH   4  21
ATOM     21  N   LIG    1      -20.031  79.513  34.441  0.00  0.00    -0.320 N 
ATOM     22  H   LIG    1      -19.133  79.616  34.910  0.00  0.00    +0.148 HD
BRANCH  21  23
ATOM     23  C   LIG    1      -21.081  79.048  35.369  0.00  0.00    +0.117 C 
ATOM     24  C   LIG    1      -20.494  78.451  36.660  0.00  0.00    +0.034 C 
BRANCH  23  25
ATOM     25  C   LIG    1      -22.036  80.198  35.713  0.00  0.00    +0.061 A 
ATOM     26  N   LIG    1      -21.510  81.374  36.158  0.00  0.00    -0.255 NA
ATOM     27  C   LIG    1      -22.381  82.341  36.543  0.00  0.00    +0.149 A 
ATOM     28  C   LIG    1      -23.754  82.200  36.485  0.00  0.00    +0.141 A 
ATOM     29  F   LIG    1      -24.562  83.184  36.897  0.00  0.00    -0.204 F 
ATOM     30  C   LIG    1      -24.284  81.017  35.998  0.00  0.00    +0.042 A 
ATOM     31  C   LIG    1      -23.415  80.001  35.599  0.00  0.00    +0.028 A 
ENDBRANCH  23  25
ENDBRANCH  21  23
ENDBRANCH   4  21
TORSDOF 6
ENDMDL
MODEL 3
REMARK VINA RESULT:      -5.8      4.704      7.965
REMARK  Name = pdb/CHEMBL3659502.pdb
REMARK                            x       y       z     vdW  Elec       q    Type
REMARK                         _______ _______ _______ _____ _____    ______ ____
ROOT
ATOM      1  N   LIG    1      -38.858  72.003  24.378  0.00  0.00    -0.266 N 
ATOM      2  C   LIG    1      -38.783  73.375  24.533  0.00  0.00    +0.168 A 
ATOM      3  N   LIG    1      -37.746  74.116  24.979  0.00  0.00    -0.211 NA
ATOM      4  C   LIG    1      -37.941  75.459  24.932  0.00  0.00    +0.140 A 
ATOM      5  C   LIG    1      -39.178  76.032  24.547  0.00  0.00    +0.083 A 
ATOM      6 CL   LIG    1      -39.409  77.745  24.472  0.00  0.00    -0.080 Cl
ATOM      7  C   LIG    1      -40.241  75.225  24.130  0.00  0.00    +0.055 A 
ATOM      8  C   LIG    1      -40.017  73.850  24.101  0.00  0.00    +0.110 A 
ATOM      9  N   LIG    1      -40.829  72.836  23.680  0.00  0.00    -0.234 NA
ATOM     10  C   LIG    1      -40.103  71.750  23.835  0.00  0.00    +0.207 A 
ENDROOT
BRANCH   1  15
ATOM     11  C   LIG    1      -36.594  69.514  25.670  0.00  0.00    +0.213 A 
ATOM     12  N   LIG    1      -36.383  69.593  24.323  0.00  0.00    -0.245 N 
ATOM     13  H   LIG    1      -35.701  69.067  23.779  0.00  0.00    +0.192 HD
ATOM     14  N   LIG    1      -37.159  70.493  23.694  0.00  0.00    -0.153 NA
ATOM     15  C   LIG    1      -37.883  71.019  24.689  0.00  0.00    +0.165 A 
ATOM     16  C   LIG    1      -37.554  70.479  25.941  0.00  0.00    +0.115 A 
BRANCH  11  17
ATOM     17  O   LIG    1      -35.926  68.634  26.406  0.00  0.00    -0.474 OA
BRANCH  17  19
ATOM     18  C   LIG    1      -33.647  69.288  27.025  0.00  0.00    +0.051 C 
ATOM     19  C   LIG    1      -34.538  68.468  26.094  0.00  0.00    +0.169 C 
ATOM     20  C   LIG    1      -34.223  66.983  26.236  0.00  0.00    +0.051 C 
ENDBRANCH  17  19
ENDBRANCH  11  17
ENDBRANCH   1  15
BRANCH   4  21
ATOM     21  N   LIG    1      -36.868  76.282  25.340  0.00  0.00    -0.320 N 
ATOM     22  H   LIG    1      -35.971  75.898  25.049  0.00  0.00    +0.148 HD
BRANCH  21  23
ATOM     23  C   LIG    1      -36.868  76.644  26.770  0.00  0.00    +0.117 C 
ATOM     24  C   LIG    1      -37.755  75.707  27.609  0.00  0.00    +0.034 C 
BRANCH  23  25
ATOM     25  C   LIG    1      -35.436  76.639  27.321  0.00  0.00    +0.061 A 
ATOM     26  N   LIG    1      -34.733  77.807  27.328  0.00  0.00    -0.255 NA
ATOM     27  C   LIG    1      -33.439  77.754  27.733  0.00  0.00    +0.149 A 
ATOM     28  C   LIG    1      -32.817  76.595  28.153  0.00  0.00    +0.141 A 
ATOM     29  F   LIG    1      -31.530  76.604  28.524  0.00  0.00    -0.204 F 
ATOM     30  C   LIG    1      -33.544  75.417  28.179  0.00  0.00    +0.042 A 
ATOM     31  C   LIG    1      -34.875  75.437  27.764  0.00  0.00    +0.028 A 
ENDBRANCH  23  25
ENDBRANCH  21  23
ENDBRANCH   4  21
TORSDOF 6
ENDMDL
MODEL 4
REMARK VINA RESULT:      -5.7     14.505     17.613
REMARK  Name = pdb/CHEMBL3659502.pdb
REMARK                            x       y       z     vdW  Elec       q    Type
REMARK                         _______ _______ _______ _____ _____    ______ ____
ROOT
ATOM      1  N   LIG    1      -24.796  77.726  32.427  0.00  0.00    -0.266 N 
ATOM      2  C   LIG    1      -23.562  77.660  31.805  0.00  0.00    +0.168 A 
ATOM      3  N   LIG    1      -22.355  78.025  32.289  0.00  0.00    -0.211 NA
ATOM      4  C   LIG    1      -21.306  77.752  31.471  0.00  0.00    +0.140 A 
ATOM      5  C   LIG    1      -21.477  77.225  30.168  0.00  0.00    +0.083 A 
ATOM      6 CL   LIG    1      -20.132  76.863  29.142  0.00  0.00    -0.080 Cl
ATOM      7  C   LIG    1      -22.750  76.899  29.690  0.00  0.00    +0.055 A 
ATOM      8  C   LIG    1      -23.822  77.103  30.558  0.00  0.00    +0.110 A 
ATOM      9  N   LIG    1      -25.148  76.817  30.398  0.00  0.00    -0.234 NA
ATOM     10  C   LIG    1      -25.699  77.177  31.537  0.00  0.00    +0.207 A 
ENDROOT
BRANCH   1  15
ATOM     11  C   LIG    1      -25.181  79.353  35.620  0.00  0.00    +0.213 A 
ATOM     12  N   LIG    1      -26.258  78.530  35.452  0.00  0.00    -0.245 N 
ATOM     13  H   LIG    1      -27.022  78.379  36.109  0.00  0.00    +0.192 HD
ATOM     14  N   LIG    1      -26.253  77.843  34.296  0.00  0.00    -0.153 NA
ATOM     15  C   LIG    1      -25.115  78.236  33.713  0.00  0.00    +0.165 A 
ATOM     16  C   LIG    1      -24.390  79.143  34.499  0.00  0.00    +0.115 A 
BRANCH  11  17
ATOM     17  O   LIG    1      -25.083  80.121  36.697  0.00  0.00    -0.474 OA
BRANCH  17  19
ATOM     18  C   LIG    1      -24.582  82.519  36.770  0.00  0.00    +0.051 C 
ATOM     19  C   LIG    1      -24.033  81.096  36.690  0.00  0.00    +0.169 C 
ATOM     20  C   LIG    1      -23.146  80.805  37.896  0.00  0.00    +0.051 C 
ENDBRANCH  17  19
ENDBRANCH  11  17
ENDBRANCH   1  15
BRANCH   4  21
ATOM     21  N   LIG    1      -20.015  78.068  31.950  0.00  0.00    -0.320 N 
ATOM     22  H   LIG    1      -19.314  77.994  31.215  0.00  0.00    +0.148 HD
BRANCH  21  23
ATOM     23  C   LIG    1      -19.607  77.341  33.168  0.00  0.00    +0.117 C 
ATOM     24  C   LIG    1      -18.306  76.544  32.962  0.00  0.00    +0.034 C 
BRANCH  23  25
ATOM     25  C   LIG    1      -19.441  78.316  34.341  0.00  0.00    +0.061 A 
ATOM     26  N   LIG    1      -18.468  78.070  35.264  0.00  0.00    -0.255 NA
ATOM     27  C   LIG    1      -18.406  78.896  36.339  0.00  0.00    +0.149 A 
ATOM     28  C   LIG    1      -19.254  79.969  36.528  0.00  0.00    +0.141 A 
ATOM     29  F   LIG    1      -19.154  80.737  37.621  0.00  0.00    -0.204 F 
ATOM     30  C   LIG    1      -20.218  80.237  35.571  0.00  0.00    +0.042 A 
ATOM     31  C   LIG    1      -20.312  79.404  34.457  0.00  0.00    +0.028 A 
ENDBRANCH  23  25
ENDBRANCH  21  23
ENDBRANCH   4  21
TORSDOF 6
ENDMDL
MODEL 5
REMARK VINA RESULT:      -5.6      5.600      7.879
REMARK  Name = pdb/CHEMBL3659502.pdb
REMARK                            x       y       z     vdW  Elec       q    Type
REMARK                         _______ _______ _______ _____ _____    ______ ____
ROOT
ATOM      1  N   LIG    1      -39.572  74.932  24.557  0.00  0.00    -0.266 N 
ATOM      2  C   LIG    1      -39.860  73.640  24.157  0.00  0.00    +0.168 A 
ATOM      3  N   LIG    1      -39.139  72.516  24.358  0.00  0.00    -0.211 NA
ATOM      4  C   LIG    1      -39.729  71.373  23.924  0.00  0.00    +0.140 A 
ATOM      5  C   LIG    1      -40.958  71.375  23.219  0.00  0.00    +0.083 A 
ATOM      6 CL   LIG    1      -41.711  69.910  22.688  0.00  0.00    -0.080 Cl
ATOM      7  C   LIG    1      -41.653  72.567  22.997  0.00  0.00    +0.055 A 
ATOM      8  C   LIG    1      -41.088  73.733  23.512  0.00  0.00    +0.110 A 
ATOM      9  N   LIG    1      -41.564  75.013  23.513  0.00  0.00    -0.234 NA
ATOM     10  C   LIG    1      -40.651  75.701  24.163  0.00  0.00    +0.207 A 
ENDROOT
BRANCH   1  15
ATOM     11  C   LIG    1      -36.802  75.812  26.689  0.00  0.00    +0.213 A 
ATOM     12  N   LIG    1      -36.612  76.447  25.494  0.00  0.00    -0.245 N 
ATOM     13  H   LIG    1      -35.846  77.072  25.249  0.00  0.00    +0.192 HD
ATOM     14  N   LIG    1      -37.577  76.218  24.587  0.00  0.00    -0.153 NA
ATOM     15  C   LIG    1      -38.425  75.415  25.241  0.00  0.00    +0.165 A 
ATOM     16  C   LIG    1      -38.018  75.156  26.557  0.00  0.00    +0.115 A 
BRANCH  11  17
ATOM     17  O   LIG    1      -35.901  75.917  27.658  0.00  0.00    -0.474 OA
BRANCH  17  19
ATOM     18  C   LIG    1      -34.767  78.021  28.198  0.00  0.00    +0.051 C 
ATOM     19  C   LIG    1      -34.758  76.733  27.377  0.00  0.00    +0.169 C 
ATOM     20  C   LIG    1      -33.524  75.902  27.714  0.00  0.00    +0.051 C 
ENDBRANCH  17  19
ENDBRANCH  11  17
ENDBRANCH   1  15
BRANCH   4  21
ATOM     21  N   LIG    1      -39.039  70.163  24.155  0.00  0.00    -0.320 N 
ATOM     22  H   LIG    1      -39.194  69.818  25.101  0.00  0.00    +0.148 HD
BRANCH  21  23
ATOM     23  C   LIG    1      -37.604  70.186  23.812  0.00  0.00    +0.117 C 
ATOM     24  C   LIG    1      -36.708  69.916  25.033  0.00  0.00    +0.034 C 
BRANCH  23  25
ATOM     25  C   LIG    1      -37.303  69.165  22.707  0.00  0.00    +0.061 A 
ATOM     26  N   LIG    1      -36.206  68.366  22.836  0.00  0.00    -0.255 NA
ATOM     27  C   LIG    1      -35.913  67.538  21.802  0.00  0.00    +0.149 A 
ATOM     28  C   LIG    1      -36.673  67.452  20.652  0.00  0.00    +0.141 A 
ATOM     29  F   LIG    1      -36.321  66.628  19.658  0.00  0.00    -0.204 F 
ATOM     30  C   LIG    1      -37.807  68.239  20.540  0.00  0.00    +0.042 A 
ATOM     31  C   LIG    1      -38.133  69.105  21.584  0.00  0.00    +0.028 A 
ENDBRANCH  23  25
ENDBRANCH  21  23
ENDBRANCH   4  21
TORSDOF 6
ENDMDL
MODEL 6
REMARK VINA RESULT:      -5.4     14.040     16.681
REMARK  Name = pdb/CHEMBL3659502.pdb
REMARK                            x       y       z     vdW  Elec       q    Type
REMARK                         _______ _______ _______ _____ _____    ______ ____
ROOT
ATOM      1  N   LIG    1      -23.967  76.737  31.021  0.00  0.00    -0.266 N 
ATOM      2  C   LIG    1      -24.803  75.650  31.198  0.00  0.00    +0.168 A 
ATOM      3  N   LIG    1      -24.560  74.349  30.929  0.00  0.00    -0.211 NA
ATOM      4  C   LIG    1      -25.548  73.494  31.299  0.00  0.00    +0.140 A 
ATOM      5  C   LIG    1      -26.782  73.945  31.828  0.00  0.00    +0.083 A 
ATOM      6 CL   LIG    1      -28.026  72.847  32.315  0.00  0.00    -0.080 Cl
ATOM      7  C   LIG    1      -27.007  75.307  32.054  0.00  0.00    +0.055 A 
ATOM      8  C   LIG    1      -25.964  76.179  31.750  0.00  0.00    +0.110 A 
ATOM      9  N   LIG    1      -25.869  77.530  31.927  0.00  0.00    -0.234 NA
ATOM     10  C   LIG    1      -24.660  77.830  31.506  0.00  0.00    +0.207 A 
ENDROOT
BRANCH   1  15
ATOM     11  C   LIG    1      -20.475  76.764  30.133  0.00  0.00    +0.213 A 
ATOM     12  N   LIG    1      -21.188  76.746  28.968  0.00  0.00    -0.245 N 
ATOM     13  H   LIG    1      -20.814  76.761  28.021  0.00  0.00    +0.192 HD
ATOM     14  N   LIG    1      -22.522  76.741  29.138  0.00  0.00    -0.153 NA
ATOM     15  C   LIG    1      -22.660  76.772  30.469  0.00  0.00    +0.165 A 
ATOM     16  C   LIG    1      -21.429  76.823  31.138  0.00  0.00    +0.115 A 
BRANCH  11  17
ATOM     17  O   LIG    1      -19.148  76.728  30.110  0.00  0.00    -0.474 OA
BRANCH  17  19
ATOM     18  C   LIG    1      -17.474  75.328  31.223  0.00  0.00    +0.051 C 
ATOM     19  C   LIG    1      -18.497  76.453  31.356  0.00  0.00    +0.169 C 
ATOM     20  C   LIG    1      -17.809  77.742  31.794  0.00  0.00    +0.051 C 
ENDBRANCH  17  19
ENDBRANCH  11  17
ENDBRANCH   1  15
BRANCH   4  21
ATOM     21  N   LIG    1      -25.323  72.116  31.085  0.00  0.00    -0.320 N 
ATOM     22  H   LIG    1      -25.862  71.544  31.733  0.00  0.00    +0.148 HD
BRANCH  21  23
ATOM     23  C   LIG    1      -23.904  71.713  31.053  0.00  0.00    +0.117 C 
ATOM     24  C   LIG    1      -23.374  71.334  32.448  0.00  0.00    +0.034 C 
BRANCH  23  25
ATOM     25  C   LIG    1      -23.704  70.541  30.083  0.00  0.00    +0.061 A 
ATOM     26  N   LIG    1      -23.068  69.422  30.531  0.00  0.00    -0.255 NA
ATOM     27  C   LIG    1      -22.822  68.441  29.626  0.00  0.00    +0.149 A 
ATOM     28  C   LIG    1      -23.201  68.511  28.300  0.00  0.00    +0.141 A 
ATOM     29  F   LIG    1      -22.913  67.517  27.451  0.00  0.00    -0.204 F 
ATOM     30  C   LIG    1      -23.879  69.635  27.857  0.00  0.00    +0.042 A 
ATOM     31  C   LIG    1      -24.141  70.664  28.761  0.00  0.00    +0.028 A 
ENDBRANCH  23  25
ENDBRANCH  21  23
ENDBRANCH   4  21
TORSDOF 6
ENDMDL
MODEL 7
REMARK VINA RESULT:      -5.4     14.453     16.488
REMARK  Name = pdb/CHEMBL3659502.pdb
REMARK                            x       y       z     vdW  Elec       q    Type
REMARK                         _______ _______ _______ _____ _____    ______ ____
ROOT
ATOM      1  N   LIG    1      -31.814  93.583  23.517  0.00  0.00    -0.266 N 
ATOM      2  C   LIG    1      -32.056  93.558  22.155  0.00  0.00    +0.168 A 
ATOM      3  N   LIG    1      -33.069  92.959  21.491  0.00  0.00    -0.211 NA
ATOM      4  C   LIG    1      -33.089  93.190  20.154  0.00  0.00    +0.140 A 
ATOM      5  C   LIG    1      -32.067  93.914  19.493  0.00  0.00    +0.083 A 
ATOM      6 CL   LIG    1      -32.113  94.219  17.791  0.00  0.00    -0.080 Cl
ATOM      7  C   LIG    1      -31.013  94.483  20.215  0.00  0.00    +0.055 A 
ATOM      8  C   LIG    1      -31.032  94.316  21.598  0.00  0.00    +0.110 A 
ATOM      9  N   LIG    1      -30.191  94.809  22.554  0.00  0.00    -0.234 NA
ATOM     10  C   LIG    1      -30.696  94.375  23.689  0.00  0.00    +0.207 A 
ENDROOT
BRANCH   1  15
ATOM     11  C   LIG    1      -34.035  92.361  26.079  0.00  0.00    +0.213 A 
ATOM     12  N   LIG    1      -33.022  91.453  25.955  0.00  0.00    -0.245 N 
ATOM     13  H   LIG    1      -32.895  90.599  26.495  0.00  0.00    +0.192 HD
ATOM     14  N   LIG    1      -32.100  91.777  25.031  0.00  0.00    -0.153 NA
ATOM     15  C   LIG    1      -32.541  92.950  24.559  0.00  0.00    +0.165 A 
ATOM     16  C   LIG    1      -33.715  93.380  25.194  0.00  0.00    +0.115 A 
BRANCH  11  17
ATOM     17  O   LIG    1      -35.034  92.142  26.925  0.00  0.00    -0.474 OA
BRANCH  17  19
ATOM     18  C   LIG    1      -36.678  93.247  28.367  0.00  0.00    +0.051 C 
ATOM     19  C   LIG    1      -35.211  93.111  27.965  0.00  0.00    +0.169 C 
ATOM     20  C   LIG    1      -34.380  92.643  29.155  0.00  0.00    +0.051 C 
ENDBRANCH  17  19
ENDBRANCH  11  17
ENDBRANCH   1  15
BRANCH   4  21
ATOM     21  N   LIG    1      -34.157  92.628  19.418  0.00  0.00    -0.320 N 
ATOM     22  H   LIG    1      -35.044  93.074  19.647  0.00  0.00    +0.148 HD
BRANCH  21  23
ATOM     23  C   LIG    1      -34.253  91.157  19.482  0.00  0.00    +0.117 C 
ATOM     24  C   LIG    1      -35.626  90.685  19.992  0.00  0.00    +0.034 C 
BRANCH  23  25
ATOM     25  C   LIG    1      -33.968  90.544  18.105  0.00  0.00    +0.061 A 
ATOM     26  N   LIG    1      -34.095  91.331  17.000  0.00  0.00    -0.255 NA
ATOM     27  C   LIG    1      -33.929  90.739  15.790  0.00  0.00    +0.149 A 
ATOM     28  C   LIG    1      -33.620  89.402  15.629  0.00  0.00    +0.141 A 
ATOM     29  F   LIG    1      -33.487  88.872  14.407  0.00  0.00    -0.204 F 
ATOM     30  C   LIG    1      -33.456  88.614  16.756  0.00  0.00    +0.042 A 
ATOM     31  C   LIG    1      -33.626  89.191  18.014  0.00  0.00    +0.028 A 
ENDBRANCH  23  25
ENDBRANCH  21  23
ENDBRANCH   4  21
TORSDOF 6
ENDMDL
MODEL 8
REMARK VINA RESULT:      -5.3      4.180      7.662
REMARK  Name = pdb/CHEMBL3659502.pdb
REMARK                            x       y       z     vdW  Elec       q    Type
REMARK                         _______ _______ _______ _____ _____    ______ ____
ROOT
ATOM      1  N   LIG    1      -35.643  80.204  28.013  0.00  0.00    -0.266 N 
ATOM      2  C   LIG    1      -36.905  79.780  27.638  0.00  0.00    +0.168 A 
ATOM      3  N   LIG    1      -37.273  78.587  27.124  0.00  0.00    -0.211 NA
ATOM      4  C   LIG    1      -38.610  78.433  26.941  0.00  0.00    +0.140 A 
ATOM      5  C   LIG    1      -39.533  79.482  27.172  0.00  0.00    +0.083 A 
ATOM      6 CL   LIG    1      -41.236  79.268  26.955  0.00  0.00    -0.080 Cl
ATOM      7  C   LIG    1      -39.103  80.717  27.667  0.00  0.00    +0.055 A 
ATOM      8  C   LIG    1      -37.741  80.852  27.931  0.00  0.00    +0.110 A 
ATOM      9  N   LIG    1      -37.051  81.897  28.476  0.00  0.00    -0.234 NA
ATOM     10  C   LIG    1      -35.808  81.473  28.534  0.00  0.00    +0.207 A 
ENDROOT
BRANCH   1  15
ATOM     11  C   LIG    1      -32.696  78.133  28.156  0.00  0.00    +0.213 A 
ATOM     12  N   LIG    1      -32.558  78.960  27.077  0.00  0.00    -0.245 N 
ATOM     13  H   LIG    1      -31.765  79.006  26.439  0.00  0.00    +0.192 HD
ATOM     14  N   LIG    1      -33.587  79.805  26.894  0.00  0.00    -0.153 NA
ATOM     15  C   LIG    1      -34.407  79.512  27.910  0.00  0.00    +0.165 A 
ATOM     16  C   LIG    1      -33.894  78.510  28.746  0.00  0.00    +0.115 A 
BRANCH  11  17
ATOM     17  O   LIG    1      -31.772  77.220  28.426  0.00  0.00    -0.474 OA
BRANCH  17  19
ATOM     18  C   LIG    1      -32.842  75.035  28.721  0.00  0.00    +0.051 C 
ATOM     19  C   LIG    1      -32.132  76.215  29.382  0.00  0.00    +0.169 C 
ATOM     20  C   LIG    1      -30.840  75.748  30.045  0.00  0.00    +0.051 C 
ENDBRANCH  17  19
ENDBRANCH  11  17
ENDBRANCH   1  15
BRANCH   4  21
ATOM     21  N   LIG    1      -39.054  77.184  26.453  0.00  0.00    -0.320 N 
ATOM     22  H   LIG    1      -38.799  76.424  27.080  0.00  0.00    +0.148 HD
BRANCH  21  23
ATOM     23  C   LIG    1      -38.675  76.889  25.057  0.00  0.00    +0.117 C 
ATOM     24  C   LIG    1      -37.359  76.098  24.966  0.00  0.00    +0.034 C 
BRANCH  23  25
ATOM     25  C   LIG    1      -39.798  76.118  24.351  0.00  0.00    +0.061 A 
ATOM     26  N   LIG    1      -40.820  76.820  23.786  0.00  0.00    -0.255 NA
ATOM     27  C   LIG    1      -41.845  76.110  23.252  0.00  0.00    +0.149 A 
ATOM     28  C   LIG    1      -41.891  74.729  23.234  0.00  0.00    +0.141 A 
ATOM     29  F   LIG    1      -42.939  74.085  22.708  0.00  0.00    -0.204 F 
ATOM     30  C   LIG    1      -40.834  74.018  23.778  0.00  0.00    +0.042 A 
ATOM     31  C   LIG    1      -39.767  74.720  24.340  0.00  0.00    +0.028 A 
ENDBRANCH  23  25
ENDBRANCH  21  23
ENDBRANCH   4  21
TORSDOF 6
ENDMDL
MODEL 9
REMARK VINA RESULT:      -5.3      3.831      6.513
REMARK  Name = pdb/CHEMBL3659502.pdb
REMARK                            x       y       z     vdW  Elec       q    Type
REMARK                         _______ _______ _______ _____ _____    ______ ____
ROOT
ATOM      1  N   LIG    1      -38.475  78.095  26.658  0.00  0.00    -0.266 N 
ATOM      2  C   LIG    1      -37.400  78.729  27.254  0.00  0.00    +0.168 A 
ATOM      3  N   LIG    1      -36.189  78.217  27.567  0.00  0.00    -0.211 NA
ATOM      4  C   LIG    1      -35.301  79.116  28.064  0.00  0.00    +0.140 A 
ATOM      5  C   LIG    1      -35.653  80.461  28.334  0.00  0.00    +0.083 A 
ATOM      6 CL   LIG    1      -34.508  81.602  28.949  0.00  0.00    -0.080 Cl
ATOM      7  C   LIG    1      -36.932  80.939  28.031  0.00  0.00    +0.055 A 
ATOM      8  C   LIG    1      -37.821  80.040  27.447  0.00  0.00    +0.110 A 
ATOM      9  N   LIG    1      -39.092  80.235  26.985  0.00  0.00    -0.234 NA
ATOM     10  C   LIG    1      -39.446  79.065  26.500  0.00  0.00    +0.207 A 
ENDROOT
BRANCH   1  15
ATOM     11  C   LIG    1      -38.766  74.836  25.148  0.00  0.00    +0.213 A 
ATOM     12  N   LIG    1      -38.635  74.648  26.495  0.00  0.00    -0.245 N 
ATOM     13  H   LIG    1      -38.639  73.759  26.992  0.00  0.00    +0.192 HD
ATOM     14  N   LIG    1      -38.520  75.785  27.202  0.00  0.00    -0.153 NA
ATOM     15  C   LIG    1      -38.598  76.737  26.265  0.00  0.00    +0.165 A 
ATOM     16  C   LIG    1      -38.786  76.213  24.978  0.00  0.00    +0.115 A 
BRANCH  11  17
ATOM     17  O   LIG    1      -38.844  73.795  24.328  0.00  0.00    -0.474 OA
BRANCH  17  19
ATOM     18  C   LIG    1      -41.148  73.550  23.531  0.00  0.00    +0.051 C 
ATOM     19  C   LIG    1      -40.034  73.001  24.419  0.00  0.00    +0.169 C 
ATOM     20  C   LIG    1      -39.661  71.588  23.984  0.00  0.00    +0.051 C 
ENDBRANCH  17  19
ENDBRANCH  11  17
ENDBRANCH   1  15
BRANCH   4  21
ATOM     21  N   LIG    1      -34.003  78.644  28.361  0.00  0.00    -0.320 N 
ATOM     22  H   LIG    1      -33.350  79.411  28.505  0.00  0.00    +0.148 HD
BRANCH  21  23
ATOM     23  C   LIG    1      -33.471  77.644  27.414  0.00  0.00    +0.117 C 
ATOM     24  C   LIG    1      -32.286  78.189  26.598  0.00  0.00    +0.034 C 
BRANCH  23  25
ATOM     25  C   LIG    1      -33.049  76.373  28.162  0.00  0.00    +0.061 A 
ATOM     26  N   LIG    1      -31.955  76.424  28.974  0.00  0.00    -0.255 NA
ATOM     27  C   LIG    1      -31.550  75.264  29.548  0.00  0.00    +0.149 A 
ATOM     28  C   LIG    1      -32.197  74.056  29.371  0.00  0.00    +0.141 A 
ATOM     29  F   LIG    1      -31.737  72.941  29.951  0.00  0.00    -0.204 F 
ATOM     30  C   LIG    1      -33.329  74.015  28.573  0.00  0.00    +0.042 A 
ATOM     31  C   LIG    1      -33.767  75.190  27.964  0.00  0.00    +0.028 A 
ENDBRANCH  23  25
ENDBRANCH  21  23
ENDBRANCH   4  21
TORSDOF 6
ENDMDL
