MODEL 1
REMARK VINA RESULT:      -5.9      0.000      0.000
REMARK  Name = pdb/CHEMBL3675998.pdb
REMARK                            x       y       z     vdW  Elec       q    Type
REMARK                         _______ _______ _______ _____ _____    ______ ____
ROOT
ATOM      1  C   LIG    1      -18.616  85.397  12.815  0.00  0.00    +0.100 A 
ATOM      2  C   LIG    1      -18.874  84.102  13.232  0.00  0.00    +0.170 A 
ATOM      3  N   LIG    1      -19.930  83.553  13.914  0.00  0.00    -0.212 NA
ATOM      4  C   LIG    1      -19.857  82.282  14.244  0.00  0.00    +0.126 A 
ATOM      5  C   LIG    1      -18.661  81.429  13.903  0.00  0.00    +0.063 A 
ATOM      6  C   LIG    1      -17.682  82.005  13.195  0.00  0.00    +0.118 A 
ATOM      7  N   LIG    1      -17.771  83.341  12.841  0.00  0.00    -0.221 N 
ATOM      8  N   LIG    1      -16.875  84.066  12.135  0.00  0.00    -0.173 NA
ATOM      9  C   LIG    1      -17.388  85.298  12.126  0.00  0.00    +0.150 A 
ENDROOT
BRANCH   4  10
ATOM     10  N   LIG    1      -20.910  81.689  14.929  0.00  0.00    -0.308 N 
ATOM     11  C   LIG    1      -22.090  82.477  15.338  0.00  0.00    +0.107 C 
ATOM     12  C   LIG    1      -22.474  81.922  16.719  0.00  0.00    +0.029 C 
ATOM     13  C   LIG    1      -21.916  80.510  16.716  0.00  0.00    +0.021 C 
ATOM     14  C   LIG    1      -20.613  80.678  15.952  0.00  0.00    +0.107 C 
BRANCH  11  15
ATOM     15  C   LIG    1      -23.233  82.361  14.352  0.00  0.00    -0.006 A 
ATOM     16  C   LIG    1      -23.323  83.094  13.162  0.00  0.00    +0.046 A 
ATOM     17  C   LIG    1      -24.374  82.854  12.286  0.00  0.00    +0.142 A 
ATOM     18  F   LIG    1      -24.467  83.536  11.138  0.00  0.00    -0.204 F 
ATOM     19  C   LIG    1      -25.313  81.891  12.609  0.00  0.00    +0.149 A 
ATOM     20  N   LIG    1      -25.269  81.161  13.746  0.00  0.00    -0.260 NA
ATOM     21  C   LIG    1      -24.238  81.418  14.586  0.00  0.00    +0.116 A 
ENDBRANCH  11  15
ENDBRANCH   4  10
BRANCH   1  24
ATOM     22  N   LIG    1      -20.761  86.444  12.789  0.00  0.00    -0.308 N 
ATOM     23  H   LIG    1      -21.078  85.502  12.579  0.00  0.00    +0.149 HD
ATOM     24  C   LIG    1      -19.407  86.594  13.022  0.00  0.00    +0.249 C 
ATOM     25  O   LIG    1      -18.889  87.637  13.384  0.00  0.00    -0.270 OA
BRANCH  22  27
ATOM     26  C   LIG    1      -22.628  87.663  11.742  0.00  0.00    +0.028 C 
ATOM     27  C   LIG    1      -21.741  87.506  12.979  0.00  0.00    +0.073 C 
BRANCH  27  28
ATOM     28  C   LIG    1      -22.521  87.210  14.252  0.00  0.00    +0.009 C 
ATOM     29  C   LIG    1      -21.930  87.368  15.638  0.00  0.00    +0.005 C 
ATOM     30  C   LIG    1      -22.226  85.995  15.104  0.00  0.00    +0.005 C 
ENDBRANCH  27  28
ENDBRANCH  22  27
ENDBRANCH   1  24
TORSDOF 5
ENDMDL
MODEL 2
REMARK VINA RESULT:      -5.8     18.269     21.340
REMARK  Name = pdb/CHEMBL3675998.pdb
REMARK                            x       y       z     vdW  Elec       q    Type
REMARK                         _______ _______ _______ _____ _____    ______ ____
ROOT
ATOM      1  C   LIG    1      -24.832  77.565  32.282  0.00  0.00    +0.100 A 
ATOM      2  C   LIG    1      -23.583  77.355  31.724  0.00  0.00    +0.170 A 
ATOM      3  N   LIG    1      -22.325  77.342  32.272  0.00  0.00    -0.212 NA
ATOM      4  C   LIG    1      -21.301  77.191  31.462  0.00  0.00    +0.126 A 
ATOM      5  C   LIG    1      -21.470  77.038  29.971  0.00  0.00    +0.063 A 
ATOM      6  C   LIG    1      -22.721  77.009  29.498  0.00  0.00    +0.118 A 
ATOM      7  N   LIG    1      -23.795  77.157  30.359  0.00  0.00    -0.221 N 
ATOM      8  N   LIG    1      -25.110  77.153  30.042  0.00  0.00    -0.173 NA
ATOM      9  C   LIG    1      -25.724  77.400  31.200  0.00  0.00    +0.150 A 
ENDROOT
BRANCH   4  10
ATOM     10  N   LIG    1      -20.013  77.166  31.981  0.00  0.00    -0.308 N 
ATOM     11  C   LIG    1      -19.410  78.377  32.574  0.00  0.00    +0.107 C 
ATOM     12  C   LIG    1      -17.935  78.333  32.146  0.00  0.00    +0.029 C 
ATOM     13  C   LIG    1      -17.669  76.860  31.894  0.00  0.00    +0.021 C 
ATOM     14  C   LIG    1      -18.979  76.394  31.280  0.00  0.00    +0.107 C 
BRANCH  11  15
ATOM     15  C   LIG    1      -19.553  78.413  34.081  0.00  0.00    -0.006 A 
ATOM     16  C   LIG    1      -19.571  79.590  34.842  0.00  0.00    +0.046 A 
ATOM     17  C   LIG    1      -19.788  79.517  36.213  0.00  0.00    +0.142 A 
ATOM     18  F   LIG    1      -19.821  80.633  36.952  0.00  0.00    -0.204 F 
ATOM     19  C   LIG    1      -19.984  78.280  36.799  0.00  0.00    +0.149 A 
ATOM     20  N   LIG    1      -19.973  77.118  36.106  0.00  0.00    -0.260 NA
ATOM     21  C   LIG    1      -19.754  77.215  34.773  0.00  0.00    +0.116 A 
ENDBRANCH  11  15
ENDBRANCH   4  10
BRANCH   1  24
ATOM     22  N   LIG    1      -24.094  78.064  34.497  0.00  0.00    -0.308 N 
ATOM     23  H   LIG    1      -23.177  78.043  34.059  0.00  0.00    +0.149 HD
ATOM     24  C   LIG    1      -25.175  77.879  33.656  0.00  0.00    +0.249 C 
ATOM     25  O   LIG    1      -26.338  77.977  34.009  0.00  0.00    -0.270 OA
BRANCH  22  27
ATOM     26  C   LIG    1      -23.809  77.264  36.810  0.00  0.00    +0.028 C 
ATOM     27  C   LIG    1      -24.211  78.429  35.902  0.00  0.00    +0.073 C 
BRANCH  27  28
ATOM     28  C   LIG    1      -23.391  79.690  36.135  0.00  0.00    +0.009 C 
ATOM     29  C   LIG    1      -24.006  81.073  36.213  0.00  0.00    +0.005 C 
ATOM     30  C   LIG    1      -23.152  80.700  35.035  0.00  0.00    +0.005 C 
ENDBRANCH  27  28
ENDBRANCH  22  27
ENDBRANCH   1  24
TORSDOF 5
ENDMDL
MODEL 3
REMARK VINA RESULT:      -5.8     18.157     21.154
REMARK  Name = pdb/CHEMBL3675998.pdb
REMARK                            x       y       z     vdW  Elec       q    Type
REMARK                         _______ _______ _______ _____ _____    ______ ____
ROOT
ATOM      1  C   LIG    1      -22.771  76.745  30.399  0.00  0.00    +0.100 A 
ATOM      2  C   LIG    1      -21.931  77.372  31.304  0.00  0.00    +0.170 A 
ATOM      3  N   LIG    1      -22.153  77.886  32.556  0.00  0.00    -0.212 NA
ATOM      4  C   LIG    1      -21.160  78.506  33.154  0.00  0.00    +0.126 A 
ATOM      5  C   LIG    1      -19.806  78.667  32.507  0.00  0.00    +0.063 A 
ATOM      6  C   LIG    1      -19.632  78.103  31.306  0.00  0.00    +0.118 A 
ATOM      7  N   LIG    1      -20.680  77.442  30.688  0.00  0.00    -0.221 N 
ATOM      8  N   LIG    1      -20.668  76.826  29.485  0.00  0.00    -0.173 NA
ATOM      9  C   LIG    1      -21.926  76.413  29.318  0.00  0.00    +0.150 A 
ENDROOT
BRANCH   4  10
ATOM     10  N   LIG    1      -21.345  79.034  34.425  0.00  0.00    -0.308 N 
ATOM     11  C   LIG    1      -22.521  79.871  34.735  0.00  0.00    +0.107 C 
ATOM     12  C   LIG    1      -21.991  80.961  35.680  0.00  0.00    +0.029 C 
ATOM     13  C   LIG    1      -20.765  80.331  36.316  0.00  0.00    +0.021 C 
ATOM     14  C   LIG    1      -20.178  79.531  35.165  0.00  0.00    +0.107 C 
BRANCH  11  15
ATOM     15  C   LIG    1      -23.643  79.077  35.371  0.00  0.00    -0.006 A 
ATOM     16  C   LIG    1      -23.525  77.746  35.793  0.00  0.00    +0.046 A 
ATOM     17  C   LIG    1      -24.591  77.134  36.439  0.00  0.00    +0.142 A 
ATOM     18  F   LIG    1      -24.489  75.867  36.861  0.00  0.00    -0.204 F 
ATOM     19  C   LIG    1      -25.751  77.855  36.656  0.00  0.00    +0.149 A 
ATOM     20  N   LIG    1      -25.912  79.140  36.266  0.00  0.00    -0.260 NA
ATOM     21  C   LIG    1      -24.861  79.713  35.633  0.00  0.00    +0.116 A 
ENDBRANCH  11  15
ENDBRANCH   4  10
BRANCH   1  24
ATOM     22  N   LIG    1      -24.526  75.492  31.424  0.00  0.00    -0.308 N 
ATOM     23  H   LIG    1      -23.762  75.116  31.978  0.00  0.00    +0.149 HD
ATOM     24  C   LIG    1      -24.191  76.475  30.512  0.00  0.00    +0.249 C 
ATOM     25  O   LIG    1      -25.005  77.094  29.847  0.00  0.00    -0.270 OA
BRANCH  22  27
ATOM     26  C   LIG    1      -26.034  73.571  31.755  0.00  0.00    +0.028 C 
ATOM     27  C   LIG    1      -25.895  75.096  31.725  0.00  0.00    +0.073 C 
BRANCH  27  28
ATOM     28  C   LIG    1      -26.309  75.768  33.027  0.00  0.00    +0.009 C 
ATOM     29  C   LIG    1      -27.593  76.559  33.177  0.00  0.00    +0.005 C 
ATOM     30  C   LIG    1      -26.270  77.271  33.196  0.00  0.00    +0.005 C 
ENDBRANCH  27  28
ENDBRANCH  22  27
ENDBRANCH   1  24
TORSDOF 5
ENDMDL
MODEL 4
REMARK VINA RESULT:      -5.8     18.058     21.084
REMARK  Name = pdb/CHEMBL3675998.pdb
REMARK                            x       y       z     vdW  Elec       q    Type
REMARK                         _______ _______ _______ _____ _____    ______ ____
ROOT
ATOM      1  C   LIG    1      -22.869  76.757  30.360  0.00  0.00    +0.100 A 
ATOM      2  C   LIG    1      -21.866  77.102  31.250  0.00  0.00    +0.170 A 
ATOM      3  N   LIG    1      -21.886  77.357  32.598  0.00  0.00    -0.212 NA
ATOM      4  C   LIG    1      -20.767  77.745  33.169  0.00  0.00    +0.126 A 
ATOM      5  C   LIG    1      -19.486  77.920  32.392  0.00  0.00    +0.063 A 
ATOM      6  C   LIG    1      -19.513  77.611  31.090  0.00  0.00    +0.118 A 
ATOM      7  N   LIG    1      -20.693  77.191  30.499  0.00  0.00    -0.221 N 
ATOM      8  N   LIG    1      -20.887  76.845  29.207  0.00  0.00    -0.173 NA
ATOM      9  C   LIG    1      -22.194  76.589  29.131  0.00  0.00    +0.150 A 
ENDROOT
BRANCH   4  10
ATOM     10  N   LIG    1      -20.746  78.006  34.533  0.00  0.00    -0.308 N 
ATOM     11  C   LIG    1      -20.397  79.347  35.044  0.00  0.00    +0.107 C 
ATOM     12  C   LIG    1      -19.572  79.083  36.313  0.00  0.00    +0.029 C 
ATOM     13  C   LIG    1      -20.025  77.706  36.765  0.00  0.00    +0.021 C 
ATOM     14  C   LIG    1      -20.225  76.980  35.445  0.00  0.00    +0.107 C 
BRANCH  11  15
ATOM     15  C   LIG    1      -21.620  80.189  35.339  0.00  0.00    -0.006 A 
ATOM     16  C   LIG    1      -22.937  79.715  35.275  0.00  0.00    +0.046 A 
ATOM     17  C   LIG    1      -23.985  80.549  35.644  0.00  0.00    +0.142 A 
ATOM     18  F   LIG    1      -25.248  80.106  35.601  0.00  0.00    -0.204 F 
ATOM     19  C   LIG    1      -23.706  81.834  36.070  0.00  0.00    +0.149 A 
ATOM     20  N   LIG    1      -22.453  82.336  36.147  0.00  0.00    -0.260 NA
ATOM     21  C   LIG    1      -21.448  81.506  35.776  0.00  0.00    +0.116 A 
ENDBRANCH  11  15
ENDBRANCH   4  10
BRANCH   1  24
ATOM     22  N   LIG    1      -24.605  75.764  31.663  0.00  0.00    -0.308 N 
ATOM     23  H   LIG    1      -23.822  75.416  32.209  0.00  0.00    +0.149 HD
ATOM     24  C   LIG    1      -24.289  76.596  30.606  0.00  0.00    +0.249 C 
ATOM     25  O   LIG    1      -25.116  77.174  29.921  0.00  0.00    -0.270 OA
BRANCH  22  27
ATOM     26  C   LIG    1      -26.325  74.021  31.935  0.00  0.00    +0.028 C 
ATOM     27  C   LIG    1      -25.966  75.499  32.109  0.00  0.00    +0.073 C 
BRANCH  27  28
ATOM     28  C   LIG    1      -26.100  75.991  33.543  0.00  0.00    +0.009 C 
ATOM     29  C   LIG    1      -27.075  77.075  33.957  0.00  0.00    +0.005 C 
ATOM     30  C   LIG    1      -25.598  77.353  33.969  0.00  0.00    +0.005 C 
ENDBRANCH  27  28
ENDBRANCH  22  27
ENDBRANCH   1  24
TORSDOF 5
ENDMDL
MODEL 5
REMARK VINA RESULT:      -5.8     18.624     21.329
REMARK  Name = pdb/CHEMBL3675998.pdb
REMARK                            x       y       z     vdW  Elec       q    Type
REMARK                         _______ _______ _______ _____ _____    ______ ____
ROOT
ATOM      1  C   LIG    1      -20.490  76.910  30.789  0.00  0.00    +0.100 A 
ATOM      2  C   LIG    1      -20.379  77.709  31.914  0.00  0.00    +0.170 A 
ATOM      3  N   LIG    1      -21.320  78.224  32.768  0.00  0.00    -0.212 NA
ATOM      4  C   LIG    1      -20.912  79.031  33.723  0.00  0.00    +0.126 A 
ATOM      5  C   LIG    1      -19.460  79.402  33.896  0.00  0.00    +0.063 A 
ATOM      6  C   LIG    1      -18.580  78.831  33.065  0.00  0.00    +0.118 A 
ATOM      7  N   LIG    1      -19.017  77.973  32.070  0.00  0.00    -0.221 N 
ATOM      8  N   LIG    1      -18.263  77.323  31.155  0.00  0.00    -0.173 NA
ATOM      9  C   LIG    1      -19.154  76.690  30.390  0.00  0.00    +0.150 A 
ENDROOT
BRANCH   4  10
ATOM     10  N   LIG    1      -21.835  79.567  34.611  0.00  0.00    -0.308 N 
ATOM     11  C   LIG    1      -21.754  79.276  36.057  0.00  0.00    +0.107 C 
ATOM     12  C   LIG    1      -23.216  79.138  36.512  0.00  0.00    +0.029 C 
ATOM     13  C   LIG    1      -23.997  79.948  35.492  0.00  0.00    +0.021 C 
ATOM     14  C   LIG    1      -23.243  79.660  34.204  0.00  0.00    +0.107 C 
BRANCH  11  15
ATOM     15  C   LIG    1      -21.030  80.361  36.825  0.00  0.00    -0.006 A 
ATOM     16  C   LIG    1      -21.009  81.711  36.451  0.00  0.00    +0.046 A 
ATOM     17  C   LIG    1      -20.382  82.641  37.271  0.00  0.00    +0.142 A 
ATOM     18  F   LIG    1      -20.365  83.936  36.934  0.00  0.00    -0.204 F 
ATOM     19  C   LIG    1      -19.790  82.212  38.445  0.00  0.00    +0.149 A 
ATOM     20  N   LIG    1      -19.783  80.921  38.847  0.00  0.00    -0.260 NA
ATOM     21  C   LIG    1      -20.396  80.033  38.028  0.00  0.00    +0.116 A 
ENDBRANCH  11  15
ENDBRANCH   4  10
BRANCH   1  24
ATOM     22  N   LIG    1      -22.629  75.874  31.012  0.00  0.00    -0.308 N 
ATOM     23  H   LIG    1      -22.430  75.969  32.005  0.00  0.00    +0.149 HD
ATOM     24  C   LIG    1      -21.688  76.401  30.149  0.00  0.00    +0.249 C 
ATOM     25  O   LIG    1      -21.828  76.457  28.939  0.00  0.00    -0.270 OA
BRANCH  22  27
ATOM     26  C   LIG    1      -24.106  73.902  31.046  0.00  0.00    +0.028 C 
ATOM     27  C   LIG    1      -23.920  75.350  30.586  0.00  0.00    +0.073 C 
BRANCH  27  28
ATOM     28  C   LIG    1      -25.005  76.291  31.091  0.00  0.00    +0.009 C 
ATOM     29  C   LIG    1      -25.145  77.722  30.615  0.00  0.00    +0.005 C 
ATOM     30  C   LIG    1      -24.692  77.443  32.020  0.00  0.00    +0.005 C 
ENDBRANCH  27  28
ENDBRANCH  22  27
ENDBRANCH   1  24
TORSDOF 5
ENDMDL
MODEL 6
REMARK VINA RESULT:      -5.8     18.495     21.688
REMARK  Name = pdb/CHEMBL3675998.pdb
REMARK                            x       y       z     vdW  Elec       q    Type
REMARK                         _______ _______ _______ _____ _____    ______ ____
ROOT
ATOM      1  C   LIG    1      -25.911  77.033  33.113  0.00  0.00    +0.100 A 
ATOM      2  C   LIG    1      -25.344  77.953  33.978  0.00  0.00    +0.170 A 
ATOM      3  N   LIG    1      -24.109  78.551  33.999  0.00  0.00    -0.212 NA
ATOM      4  C   LIG    1      -23.823  79.339  35.011  0.00  0.00    +0.126 A 
ATOM      5  C   LIG    1      -24.797  79.594  36.134  0.00  0.00    +0.063 A 
ATOM      6  C   LIG    1      -26.003  79.023  36.037  0.00  0.00    +0.118 A 
ATOM      7  N   LIG    1      -26.302  78.204  34.962  0.00  0.00    -0.221 N 
ATOM      8  N   LIG    1      -27.464  77.556  34.719  0.00  0.00    -0.173 NA
ATOM      9  C   LIG    1      -27.220  76.855  33.611  0.00  0.00    +0.150 A 
ENDROOT
BRANCH   4  10
ATOM     10  N   LIG    1      -22.585  79.968  35.064  0.00  0.00    -0.308 N 
ATOM     11  C   LIG    1      -21.432  79.320  35.720  0.00  0.00    +0.107 C 
ATOM     12  C   LIG    1      -20.686  80.464  36.425  0.00  0.00    +0.029 C 
ATOM     13  C   LIG    1      -21.080  81.700  35.635  0.00  0.00    +0.021 C 
ATOM     14  C   LIG    1      -22.533  81.417  35.294  0.00  0.00    +0.107 C 
BRANCH  11  15
ATOM     15  C   LIG    1      -20.539  78.594  34.736  0.00  0.00    -0.006 A 
ATOM     16  C   LIG    1      -20.528  78.837  33.356  0.00  0.00    +0.046 A 
ATOM     17  C   LIG    1      -19.612  78.172  32.550  0.00  0.00    +0.142 A 
ATOM     18  F   LIG    1      -19.580  78.404  31.232  0.00  0.00    -0.204 F 
ATOM     19  C   LIG    1      -18.726  77.283  33.129  0.00  0.00    +0.149 A 
ATOM     20  N   LIG    1      -18.700  77.015  34.454  0.00  0.00    -0.260 NA
ATOM     21  C   LIG    1      -19.606  77.671  35.218  0.00  0.00    +0.116 A 
ENDBRANCH  11  15
ENDBRANCH   4  10
BRANCH   1  24
ATOM     22  N   LIG    1      -24.037  75.916  32.143  0.00  0.00    -0.308 N 
ATOM     23  H   LIG    1      -23.666  75.992  33.086  0.00  0.00    +0.149 HD
ATOM     24  C   LIG    1      -25.322  76.389  31.955  0.00  0.00    +0.249 C 
ATOM     25  O   LIG    1      -25.943  76.279  30.911  0.00  0.00    -0.270 OA
BRANCH  22  27
ATOM     26  C   LIG    1      -23.972  73.890  30.743  0.00  0.00    +0.028 C 
ATOM     27  C   LIG    1      -23.278  75.199  31.127  0.00  0.00    +0.073 C 
BRANCH  27  28
ATOM     28  C   LIG    1      -23.058  76.137  29.948  0.00  0.00    +0.009 C 
ATOM     29  C   LIG    1      -21.684  76.473  29.406  0.00  0.00    +0.005 C 
ATOM     30  C   LIG    1      -22.479  77.523  30.129  0.00  0.00    +0.005 C 
ENDBRANCH  27  28
ENDBRANCH  22  27
ENDBRANCH   1  24
TORSDOF 5
ENDMDL
MODEL 7
REMARK VINA RESULT:      -5.7     18.337     20.797
REMARK  Name = pdb/CHEMBL3675998.pdb
REMARK                            x       y       z     vdW  Elec       q    Type
REMARK                         _______ _______ _______ _____ _____    ______ ____
ROOT
ATOM      1  C   LIG    1      -18.290  78.292  33.286  0.00  0.00    +0.100 A 
ATOM      2  C   LIG    1      -19.224  77.926  32.332  0.00  0.00    +0.170 A 
ATOM      3  N   LIG    1      -20.594  77.998  32.318  0.00  0.00    -0.212 NA
ATOM      4  C   LIG    1      -21.227  77.490  31.284  0.00  0.00    +0.126 A 
ATOM      5  C   LIG    1      -20.499  76.838  30.135  0.00  0.00    +0.063 A 
ATOM      6  C   LIG    1      -19.161  76.840  30.179  0.00  0.00    +0.118 A 
ATOM      7  N   LIG    1      -18.501  77.388  31.267  0.00  0.00    -0.221 N 
ATOM      8  N   LIG    1      -17.166  77.467  31.464  0.00  0.00    -0.173 NA
ATOM      9  C   LIG    1      -17.048  78.008  32.677  0.00  0.00    +0.150 A 
ENDROOT
BRANCH   4  10
ATOM     10  N   LIG    1      -22.614  77.549  31.230  0.00  0.00    -0.308 N 
ATOM     11  C   LIG    1      -23.443  76.792  32.190  0.00  0.00    +0.107 C 
ATOM     12  C   LIG    1      -24.644  76.297  31.368  0.00  0.00    +0.029 C 
ATOM     13  C   LIG    1      -24.736  77.287  30.220  0.00  0.00    +0.021 C 
ATOM     14  C   LIG    1      -23.274  77.572  29.919  0.00  0.00    +0.107 C 
BRANCH  11  15
ATOM     15  C   LIG    1      -23.883  77.639  33.366  0.00  0.00    -0.006 A 
ATOM     16  C   LIG    1      -23.471  78.960  33.583  0.00  0.00    +0.046 A 
ATOM     17  C   LIG    1      -23.997  79.677  34.650  0.00  0.00    +0.142 A 
ATOM     18  F   LIG    1      -23.624  80.945  34.863  0.00  0.00    -0.204 F 
ATOM     19  C   LIG    1      -24.923  79.069  35.479  0.00  0.00    +0.149 A 
ATOM     20  N   LIG    1      -25.349  77.796  35.310  0.00  0.00    -0.260 NA
ATOM     21  C   LIG    1      -24.817  77.117  34.266  0.00  0.00    +0.116 A 
ENDBRANCH  11  15
ENDBRANCH   4  10
BRANCH   1  24
ATOM     22  N   LIG    1      -19.791  79.298  34.847  0.00  0.00    -0.308 N 
ATOM     23  H   LIG    1      -20.469  79.128  34.109  0.00  0.00    +0.149 HD
ATOM     24  C   LIG    1      -18.507  78.844  34.610  0.00  0.00    +0.249 C 
ATOM     25  O   LIG    1      -17.608  78.880  35.433  0.00  0.00    -0.270 OA
BRANCH  22  27
ATOM     26  C   LIG    1      -20.626  81.321  35.978  0.00  0.00    +0.028 C 
ATOM     27  C   LIG    1      -20.236  79.847  36.120  0.00  0.00    +0.073 C 
BRANCH  27  28
ATOM     28  C   LIG    1      -21.363  78.970  36.648  0.00  0.00    +0.009 C 
ATOM     29  C   LIG    1      -21.169  77.956  37.758  0.00  0.00    +0.005 C 
ATOM     30  C   LIG    1      -21.424  77.487  36.353  0.00  0.00    +0.005 C 
ENDBRANCH  27  28
ENDBRANCH  22  27
ENDBRANCH   1  24
TORSDOF 5
ENDMDL
MODEL 8
REMARK VINA RESULT:      -5.6     18.609     20.496
REMARK  Name = pdb/CHEMBL3675998.pdb
REMARK                            x       y       z     vdW  Elec       q    Type
REMARK                         _______ _______ _______ _____ _____    ______ ____
ROOT
ATOM      1  C   LIG    1      -36.156  83.050  27.248  0.00  0.00    +0.100 A 
ATOM      2  C   LIG    1      -35.491  81.974  27.810  0.00  0.00    +0.170 A 
ATOM      3  N   LIG    1      -34.883  80.879  27.250  0.00  0.00    -0.212 NA
ATOM      4  C   LIG    1      -34.394  79.965  28.058  0.00  0.00    +0.126 A 
ATOM      5  C   LIG    1      -34.487  80.084  29.559  0.00  0.00    +0.063 A 
ATOM      6  C   LIG    1      -35.047  81.196  30.050  0.00  0.00    +0.118 A 
ATOM      7  N   LIG    1      -35.549  82.161  29.192  0.00  0.00    -0.221 N 
ATOM      8  N   LIG    1      -36.141  83.329  29.525  0.00  0.00    -0.173 NA
ATOM      9  C   LIG    1      -36.505  83.855  28.354  0.00  0.00    +0.150 A 
ENDROOT
BRANCH   4  10
ATOM     10  N   LIG    1      -33.766  78.845  27.529  0.00  0.00    -0.308 N 
ATOM     11  C   LIG    1      -33.603  77.616  28.331  0.00  0.00    +0.107 C 
ATOM     12  C   LIG    1      -32.216  77.076  27.947  0.00  0.00    +0.029 C 
ATOM     13  C   LIG    1      -31.970  77.647  26.562  0.00  0.00    +0.021 C 
ATOM     14  C   LIG    1      -32.592  79.030  26.666  0.00  0.00    +0.107 C 
BRANCH  11  15
ATOM     15  C   LIG    1      -34.693  76.600  28.058  0.00  0.00    -0.006 A 
ATOM     16  C   LIG    1      -35.784  76.825  27.208  0.00  0.00    +0.046 A 
ATOM     17  C   LIG    1      -36.685  75.796  26.963  0.00  0.00    +0.142 A 
ATOM     18  F   LIG    1      -37.725  75.991  26.142  0.00  0.00    -0.204 F 
ATOM     19  C   LIG    1      -36.486  74.567  27.565  0.00  0.00    +0.149 A 
ATOM     20  N   LIG    1      -35.450  74.305  28.393  0.00  0.00    -0.260 NA
ATOM     21  C   LIG    1      -34.588  75.324  28.621  0.00  0.00    +0.116 A 
ENDBRANCH  11  15
ENDBRANCH   4  10
BRANCH   1  24
ATOM     22  N   LIG    1      -37.739  83.052  25.461  0.00  0.00    -0.308 N 
ATOM     23  H   LIG    1      -38.382  82.778  26.199  0.00  0.00    +0.149 HD
ATOM     24  C   LIG    1      -36.440  83.316  25.851  0.00  0.00    +0.249 C 
ATOM     25  O   LIG    1      -35.579  83.751  25.104  0.00  0.00    -0.270 OA
BRANCH  22  27
ATOM     26  C   LIG    1      -39.129  82.129  23.648  0.00  0.00    +0.028 C 
ATOM     27  C   LIG    1      -38.249  83.290  24.117  0.00  0.00    +0.073 C 
BRANCH  27  28
ATOM     28  C   LIG    1      -38.963  84.634  24.110  0.00  0.00    +0.009 C 
ATOM     29  C   LIG    1      -38.448  85.839  23.350  0.00  0.00    +0.005 C 
ATOM     30  C   LIG    1      -38.414  85.833  24.852  0.00  0.00    +0.005 C 
ENDBRANCH  27  28
ENDBRANCH  22  27
ENDBRANCH   1  24
TORSDOF 5
ENDMDL
MODEL 9
REMARK VINA RESULT:      -5.5     18.229     21.336
REMARK  Name = pdb/CHEMBL3675998.pdb
REMARK                            x       y       z     vdW  Elec       q    Type
REMARK                         _______ _______ _______ _____ _____    ______ ____
ROOT
ATOM      1  C   LIG    1      -23.710  80.010  35.516  0.00  0.00    +0.100 A 
ATOM      2  C   LIG    1      -24.393  78.872  35.122  0.00  0.00    +0.170 A 
ATOM      3  N   LIG    1      -24.000  77.771  34.404  0.00  0.00    -0.212 NA
ATOM      4  C   LIG    1      -24.910  76.868  34.112  0.00  0.00    +0.126 A 
ATOM      5  C   LIG    1      -26.351  77.011  34.535  0.00  0.00    +0.063 A 
ATOM      6  C   LIG    1      -26.667  78.081  35.275  0.00  0.00    +0.118 A 
ATOM      7  N   LIG    1      -25.700  79.021  35.588  0.00  0.00    -0.221 N 
ATOM      8  N   LIG    1      -25.856  80.149  36.319  0.00  0.00    -0.173 NA
ATOM      9  C   LIG    1      -24.659  80.736  36.268  0.00  0.00    +0.150 A 
ENDROOT
BRANCH   4  10
ATOM     10  N   LIG    1      -24.549  75.737  33.392  0.00  0.00    -0.308 N 
ATOM     11  C   LIG    1      -24.797  75.651  31.939  0.00  0.00    +0.107 C 
ATOM     12  C   LIG    1      -25.209  74.190  31.695  0.00  0.00    +0.029 C 
ATOM     13  C   LIG    1      -24.582  73.434  32.853  0.00  0.00    +0.021 C 
ATOM     14  C   LIG    1      -24.738  74.414  34.003  0.00  0.00    +0.107 C 
BRANCH  11  15
ATOM     15  C   LIG    1      -23.580  76.031  31.122  0.00  0.00    -0.006 A 
ATOM     16  C   LIG    1      -22.292  75.527  31.346  0.00  0.00    +0.046 A 
ATOM     17  C   LIG    1      -21.259  75.880  30.487  0.00  0.00    +0.142 A 
ATOM     18  F   LIG    1      -20.025  75.395  30.679  0.00  0.00    -0.204 F 
ATOM     19  C   LIG    1      -21.524  76.723  29.423  0.00  0.00    +0.149 A 
ATOM     20  N   LIG    1      -22.749  77.235  29.168  0.00  0.00    -0.260 NA
ATOM     21  C   LIG    1      -23.739  76.881  30.023  0.00  0.00    +0.116 A 
ENDBRANCH  11  15
ENDBRANCH   4  10
BRANCH   1  24
ATOM     22  N   LIG    1      -21.450  79.338  35.146  0.00  0.00    -0.308 N 
ATOM     23  H   LIG    1      -21.852  78.406  35.199  0.00  0.00    +0.149 HD
ATOM     24  C   LIG    1      -22.339  80.391  35.239  0.00  0.00    +0.249 C 
ATOM     25  O   LIG    1      -22.028  81.561  35.092  0.00  0.00    -0.270 OA
BRANCH  22  27
ATOM     26  C   LIG    1      -19.178  79.422  36.097  0.00  0.00    +0.028 C 
ATOM     27  C   LIG    1      -20.036  79.493  34.830  0.00  0.00    +0.073 C 
BRANCH  27  28
ATOM     28  C   LIG    1      -19.665  78.448  33.787  0.00  0.00    +0.009 C 
ATOM     29  C   LIG    1      -18.565  78.656  32.766  0.00  0.00    +0.005 C 
ATOM     30  C   LIG    1      -20.000  78.629  32.323  0.00  0.00    +0.005 C 
ENDBRANCH  27  28
ENDBRANCH  22  27
ENDBRANCH   1  24
TORSDOF 5
ENDMDL
