MODEL 1
REMARK VINA RESULT:      -6.1      0.000      0.000
REMARK  Name = pdb/CHEMBL3974062.pdb
REMARK                            x       y       z     vdW  Elec       q    Type
REMARK                         _______ _______ _______ _____ _____    ______ ____
ROOT
ATOM      1  C   LIG    1      -36.587  67.270  21.970  0.00  0.00    +0.323 A 
ATOM      2  N   LIG    1      -36.444  67.307  23.306  0.00  0.00    -0.201 NA
ATOM      3  C   LIG    1      -37.044  68.366  23.941  0.00  0.00    +0.145 A 
ATOM      4  C   LIG    1      -37.734  69.391  23.318  0.00  0.00    +0.105 A 
ATOM      5  C   LIG    1      -37.707  69.268  21.945  0.00  0.00    +0.145 A 
ATOM      6  N   LIG    1      -37.232  68.211  21.282  0.00  0.00    -0.201 NA
ENDROOT
BRANCH   4   7
ATOM      7  N   LIG    1      -38.424  70.451  23.995  0.00  0.00    -0.196 NA
ATOM      8  C   LIG    1      -37.705  71.426  24.435  0.00  0.00    +0.285 C 
BRANCH   8   9
ATOM      9  N   LIG    1      -38.139  72.512  25.173  0.00  0.00    -0.267 N 
ATOM     10  H   LIG    1      -38.205  72.317  26.167  0.00  0.00    +0.157 HD
BRANCH   9  11
ATOM     11  C   LIG    1      -38.673  73.758  24.751  0.00  0.00    +0.073 A 
ATOM     12  C   LIG    1      -39.929  73.899  24.122  0.00  0.00    +0.145 A 
ATOM     13  F   LIG    1      -40.609  72.812  23.728  0.00  0.00    -0.204 F 
ATOM     14  C   LIG    1      -40.545  75.122  23.882  0.00  0.00    +0.043 A 
ATOM     15  C   LIG    1      -39.874  76.286  24.209  0.00  0.00    +0.041 A 
ATOM     16  C   LIG    1      -38.602  76.192  24.764  0.00  0.00    +0.125 A 
ATOM     17  F   LIG    1      -37.948  77.321  25.061  0.00  0.00    -0.205 F 
ATOM     18  C   LIG    1      -37.997  74.954  25.033  0.00  0.00    +0.064 A 
ENDBRANCH   9  11
ENDBRANCH   8   9
BRANCH   8  19
ATOM     19  O   LIG    1      -36.397  71.456  24.116  0.00  0.00    -0.481 OA
ATOM     20  H   LIG    1      -35.876  70.837  24.632  0.00  0.00    +0.295 HD
ENDBRANCH   8  19
ENDBRANCH   4   7
BRANCH   1  21
ATOM     21  O   LIG    1      -36.017  66.197  21.270  0.00  0.00    -0.424 OA
BRANCH  21  25
ATOM     22  C   LIG    1      -32.725  66.912  18.704  0.00  0.00    -0.010 A 
ATOM     23  C   LIG    1      -34.041  66.845  18.225  0.00  0.00    +0.012 A 
ATOM     24  C   LIG    1      -35.125  66.621  19.098  0.00  0.00    +0.047 A 
ATOM     25  C   LIG    1      -34.909  66.426  20.466  0.00  0.00    +0.132 A 
ATOM     26  C   LIG    1      -33.588  66.437  20.917  0.00  0.00    +0.047 A 
ATOM     27  C   LIG    1      -32.530  66.748  20.076  0.00  0.00    +0.012 A 
BRANCH  22  31
ATOM     28  N   LIG    1      -28.172  68.512  17.145  0.00  0.00    -0.261 NA
ATOM     29  C   LIG    1      -29.281  67.870  17.139  0.00  0.00    +0.167 A 
ATOM     30  S   LIG    1      -29.935  66.863  18.438  0.00  0.00    -0.050 S 
ATOM     31  C   LIG    1      -31.567  67.136  17.836  0.00  0.00    +0.039 A 
ATOM     32  C   LIG    1      -31.518  67.676  16.607  0.00  0.00    +0.100 A 
ATOM     33  N   LIG    1      -30.243  67.957  16.160  0.00  0.00    -0.340 N 
ATOM     34  H   LIG    1      -30.116  68.677  15.463  0.00  0.00    +0.167 HD
BRANCH  28  35
ATOM     35  C   LIG    1      -27.324  68.480  18.336  0.00  0.00    +0.144 C 
BRANCH  35  37
ATOM     36  C   LIG    1      -28.231  70.398  19.692  0.00  0.00    +0.005 C 
ATOM     37  C   LIG    1      -27.068  69.890  18.855  0.00  0.00    +0.020 C 
ENDBRANCH  35  37
ENDBRANCH  28  35
ENDBRANCH  22  31
ENDBRANCH  21  25
ENDBRANCH   1  21
TORSDOF 9
ENDMDL
MODEL 2
REMARK VINA RESULT:      -6.1     17.478     19.877
REMARK  Name = pdb/CHEMBL3974062.pdb
REMARK                            x       y       z     vdW  Elec       q    Type
REMARK                         _______ _______ _______ _____ _____    ______ ____
ROOT
ATOM      1  C   LIG    1      -26.177  82.280  37.015  0.00  0.00    +0.323 A 
ATOM      2  N   LIG    1      -27.447  81.979  37.338  0.00  0.00    -0.201 NA
ATOM      3  C   LIG    1      -28.375  82.958  37.087  0.00  0.00    +0.145 A 
ATOM      4  C   LIG    1      -28.101  84.214  36.574  0.00  0.00    +0.105 A 
ATOM      5  C   LIG    1      -26.748  84.409  36.390  0.00  0.00    +0.145 A 
ATOM      6  N   LIG    1      -25.815  83.462  36.517  0.00  0.00    -0.201 NA
ENDROOT
BRANCH   4   7
ATOM      7  N   LIG    1      -29.086  85.201  36.242  0.00  0.00    -0.196 NA
ATOM      8  C   LIG    1      -29.437  85.282  35.004  0.00  0.00    +0.285 C 
BRANCH   8   9
ATOM      9  N   LIG    1      -30.309  86.198  34.445  0.00  0.00    -0.267 N 
ATOM     10  H   LIG    1      -31.104  86.407  35.041  0.00  0.00    +0.157 HD
BRANCH   9  11
ATOM     11  C   LIG    1      -30.365  86.732  33.130  0.00  0.00    +0.073 A 
ATOM     12  C   LIG    1      -29.498  87.740  32.658  0.00  0.00    +0.145 A 
ATOM     13  F   LIG    1      -28.679  88.377  33.509  0.00  0.00    -0.204 F 
ATOM     14  C   LIG    1      -29.414  88.132  31.326  0.00  0.00    +0.043 A 
ATOM     15  C   LIG    1      -30.269  87.558  30.404  0.00  0.00    +0.041 A 
ATOM     16  C   LIG    1      -31.191  86.613  30.843  0.00  0.00    +0.125 A 
ATOM     17  F   LIG    1      -32.031  86.075  29.951  0.00  0.00    -0.205 F 
ATOM     18  C   LIG    1      -31.251  86.199  32.183  0.00  0.00    +0.064 A 
ENDBRANCH   9  11
ENDBRANCH   8   9
BRANCH   8  19
ATOM     19  O   LIG    1      -28.969  84.359  34.142  0.00  0.00    -0.481 OA
ATOM     20  H   LIG    1      -29.138  83.461  34.434  0.00  0.00    +0.295 HD
ENDBRANCH   8  19
ENDBRANCH   4   7
BRANCH   1  21
ATOM     21  O   LIG    1      -25.189  81.309  37.225  0.00  0.00    -0.424 OA
BRANCH  21  25
ATOM     22  C   LIG    1      -24.129  78.753  34.018  0.00  0.00    -0.010 A 
ATOM     23  C   LIG    1      -25.265  78.523  34.808  0.00  0.00    +0.012 A 
ATOM     24  C   LIG    1      -25.609  79.395  35.863  0.00  0.00    +0.047 A 
ATOM     25  C   LIG    1      -24.803  80.496  36.167  0.00  0.00    +0.132 A 
ATOM     26  C   LIG    1      -23.645  80.677  35.408  0.00  0.00    +0.047 A 
ATOM     27  C   LIG    1      -23.355  79.874  34.315  0.00  0.00    +0.012 A 
BRANCH  22  31
ATOM     28  N   LIG    1      -21.638  77.040  29.947  0.00  0.00    -0.261 NA
ATOM     29  C   LIG    1      -22.417  77.030  30.964  0.00  0.00    +0.167 A 
ATOM     30  S   LIG    1      -22.027  77.550  32.609  0.00  0.00    -0.050 S 
ATOM     31  C   LIG    1      -23.729  77.873  32.918  0.00  0.00    +0.039 A 
ATOM     32  C   LIG    1      -24.482  77.327  31.949  0.00  0.00    +0.100 A 
ATOM     33  N   LIG    1      -23.760  76.736  30.932  0.00  0.00    -0.340 N 
ATOM     34  H   LIG    1      -24.182  76.648  30.018  0.00  0.00    +0.167 HD
BRANCH  28  35
ATOM     35  C   LIG    1      -20.276  77.557  30.083  0.00  0.00    +0.144 C 
BRANCH  35  37
ATOM     36  C   LIG    1      -18.025  76.928  31.019  0.00  0.00    +0.005 C 
ATOM     37  C   LIG    1      -19.292  76.424  30.346  0.00  0.00    +0.020 C 
ENDBRANCH  35  37
ENDBRANCH  28  35
ENDBRANCH  22  31
ENDBRANCH  21  25
ENDBRANCH   1  21
TORSDOF 9
ENDMDL
MODEL 3
REMARK VINA RESULT:      -5.9     11.178     15.742
REMARK  Name = pdb/CHEMBL3974062.pdb
REMARK                            x       y       z     vdW  Elec       q    Type
REMARK                         _______ _______ _______ _____ _____    ______ ____
ROOT
ATOM      1  C   LIG    1      -29.919  75.121  31.579  0.00  0.00    +0.323 A 
ATOM      2  N   LIG    1      -29.865  76.360  31.062  0.00  0.00    -0.201 NA
ATOM      3  C   LIG    1      -28.741  77.086  31.370  0.00  0.00    +0.145 A 
ATOM      4  C   LIG    1      -27.706  76.660  32.184  0.00  0.00    +0.105 A 
ATOM      5  C   LIG    1      -27.954  75.414  32.719  0.00  0.00    +0.145 A 
ATOM      6  N   LIG    1      -28.972  74.623  32.374  0.00  0.00    -0.201 NA
ENDROOT
BRANCH   4   7
ATOM      7  N   LIG    1      -26.501  77.395  32.436  0.00  0.00    -0.196 NA
ATOM      8  C   LIG    1      -25.535  77.238  31.596  0.00  0.00    +0.285 C 
BRANCH   8   9
ATOM      9  N   LIG    1      -24.267  77.784  31.676  0.00  0.00    -0.267 N 
ATOM     10  H   LIG    1      -24.274  78.792  31.797  0.00  0.00    +0.157 HD
BRANCH   9  11
ATOM     11  C   LIG    1      -22.996  77.200  31.432  0.00  0.00    +0.073 A 
ATOM     12  C   LIG    1      -22.334  76.356  32.349  0.00  0.00    +0.145 A 
ATOM     13  F   LIG    1      -22.811  76.209  33.595  0.00  0.00    -0.204 F 
ATOM     14  C   LIG    1      -21.189  75.626  32.047  0.00  0.00    +0.043 A 
ATOM     15  C   LIG    1      -20.610  75.774  30.801  0.00  0.00    +0.041 A 
ATOM     16  C   LIG    1      -21.190  76.653  29.893  0.00  0.00    +0.125 A 
ATOM     17  F   LIG    1      -20.616  76.809  28.694  0.00  0.00    -0.205 F 
ATOM     18  C   LIG    1      -22.364  77.365  30.191  0.00  0.00    +0.064 A 
ENDBRANCH   9  11
ENDBRANCH   8   9
BRANCH   8  19
ATOM     19  O   LIG    1      -25.763  76.517  30.482  0.00  0.00    -0.481 OA
ATOM     20  H   LIG    1      -26.697  76.363  30.326  0.00  0.00    +0.295 HD
ENDBRANCH   8  19
ENDBRANCH   4   7
BRANCH   1  21
ATOM     21  O   LIG    1      -31.031  74.322  31.277  0.00  0.00    -0.424 OA
BRANCH  21  25
ATOM     22  C   LIG    1      -34.288  76.068  29.208  0.00  0.00    -0.010 A 
ATOM     23  C   LIG    1      -34.097  76.252  30.585  0.00  0.00    +0.012 A 
ATOM     24  C   LIG    1      -32.997  75.674  31.253  0.00  0.00    +0.047 A 
ATOM     25  C   LIG    1      -32.085  74.872  30.560  0.00  0.00    +0.132 A 
ATOM     26  C   LIG    1      -32.322  74.653  29.202  0.00  0.00    +0.047 A 
ATOM     27  C   LIG    1      -33.350  75.294  28.526  0.00  0.00    +0.012 A 
BRANCH  22  31
ATOM     28  N   LIG    1      -37.537  77.005  25.429  0.00  0.00    -0.261 NA
ATOM     29  C   LIG    1      -37.045  77.009  26.612  0.00  0.00    +0.167 A 
ATOM     30  S   LIG    1      -36.492  75.608  27.540  0.00  0.00    -0.050 S 
ATOM     31  C   LIG    1      -35.416  76.643  28.473  0.00  0.00    +0.039 A 
ATOM     32  C   LIG    1      -35.728  77.933  28.266  0.00  0.00    +0.100 A 
ATOM     33  N   LIG    1      -36.727  78.134  27.335  0.00  0.00    -0.340 N 
ATOM     34  H   LIG    1      -36.767  79.016  26.842  0.00  0.00    +0.167 HD
BRANCH  28  35
ATOM     35  C   LIG    1      -37.648  75.744  24.696  0.00  0.00    +0.144 C 
BRANCH  35  37
ATOM     36  C   LIG    1      -39.181  73.752  24.848  0.00  0.00    +0.005 C 
ATOM     37  C   LIG    1      -39.093  75.260  24.671  0.00  0.00    +0.020 C 
ENDBRANCH  35  37
ENDBRANCH  28  35
ENDBRANCH  22  31
ENDBRANCH  21  25
ENDBRANCH   1  21
TORSDOF 9
ENDMDL
MODEL 4
REMARK VINA RESULT:      -5.9     18.791     20.695
REMARK  Name = pdb/CHEMBL3974062.pdb
REMARK                            x       y       z     vdW  Elec       q    Type
REMARK                         _______ _______ _______ _____ _____    ______ ____
ROOT
ATOM      1  C   LIG    1      -26.277  83.568  37.180  0.00  0.00    +0.323 A 
ATOM      2  N   LIG    1      -27.404  83.171  37.795  0.00  0.00    -0.201 NA
ATOM      3  C   LIG    1      -28.570  83.712  37.312  0.00  0.00    +0.145 A 
ATOM      4  C   LIG    1      -28.663  84.642  36.292  0.00  0.00    +0.105 A 
ATOM      5  C   LIG    1      -27.420  85.026  35.833  0.00  0.00    +0.145 A 
ATOM      6  N   LIG    1      -26.265  84.459  36.190  0.00  0.00    -0.201 NA
ENDROOT
BRANCH   4   7
ATOM      7  N   LIG    1      -29.888  85.144  35.743  0.00  0.00    -0.196 NA
ATOM      8  C   LIG    1      -30.186  84.772  34.544  0.00  0.00    +0.285 C 
BRANCH   8   9
ATOM      9  N   LIG    1      -31.271  85.182  33.792  0.00  0.00    -0.267 N 
ATOM     10  H   LIG    1      -32.149  84.782  34.108  0.00  0.00    +0.157 HD
BRANCH   9  11
ATOM     11  C   LIG    1      -31.324  85.901  32.568  0.00  0.00    +0.073 A 
ATOM     12  C   LIG    1      -30.799  87.200  32.401  0.00  0.00    +0.145 A 
ATOM     13  F   LIG    1      -30.374  87.897  33.467  0.00  0.00    -0.204 F 
ATOM     14  C   LIG    1      -30.670  87.834  31.170  0.00  0.00    +0.043 A 
ATOM     15  C   LIG    1      -31.140  87.198  30.037  0.00  0.00    +0.041 A 
ATOM     16  C   LIG    1      -31.733  85.946  30.169  0.00  0.00    +0.125 A 
ATOM     17  F   LIG    1      -32.205  85.342  29.072  0.00  0.00    -0.205 F 
ATOM     18  C   LIG    1      -31.833  85.297  31.410  0.00  0.00    +0.064 A 
ENDBRANCH   9  11
ENDBRANCH   8   9
BRANCH   8  19
ATOM     19  O   LIG    1      -29.413  83.844  33.949  0.00  0.00    -0.481 OA
ATOM     20  H   LIG    1      -29.659  82.948  34.190  0.00  0.00    +0.295 HD
ENDBRANCH   8  19
ENDBRANCH   4   7
BRANCH   1  21
ATOM     21  O   LIG    1      -25.058  83.027  37.613  0.00  0.00    -0.424 OA
BRANCH  21  25
ATOM     22  C   LIG    1      -23.009  80.213  35.201  0.00  0.00    -0.010 A 
ATOM     23  C   LIG    1      -22.496  81.494  35.447  0.00  0.00    +0.012 A 
ATOM     24  C   LIG    1      -23.187  82.412  36.266  0.00  0.00    +0.047 A 
ATOM     25  C   LIG    1      -24.422  82.076  36.827  0.00  0.00    +0.132 A 
ATOM     26  C   LIG    1      -24.946  80.817  36.524  0.00  0.00    +0.047 A 
ATOM     27  C   LIG    1      -24.227  79.882  35.795  0.00  0.00    +0.012 A 
BRANCH  22  31
ATOM     28  N   LIG    1      -19.550  78.150  32.120  0.00  0.00    -0.261 NA
ATOM     29  C   LIG    1      -20.559  78.224  32.906  0.00  0.00    +0.167 A 
ATOM     30  S   LIG    1      -20.601  78.954  34.517  0.00  0.00    -0.050 S 
ATOM     31  C   LIG    1      -22.332  79.229  34.353  0.00  0.00    +0.039 A 
ATOM     32  C   LIG    1      -22.809  78.536  33.307  0.00  0.00    +0.100 A 
ATOM     33  N   LIG    1      -21.845  77.864  32.582  0.00  0.00    -0.340 N 
ATOM     34  H   LIG    1      -22.024  77.647  31.612  0.00  0.00    +0.167 HD
BRANCH  28  35
ATOM     35  C   LIG    1      -18.275  78.745  32.520  0.00  0.00    +0.144 C 
BRANCH  35  37
ATOM     36  C   LIG    1      -17.588  76.869  30.988  0.00  0.00    +0.005 C 
ATOM     37  C   LIG    1      -17.110  78.022  31.855  0.00  0.00    +0.020 C 
ENDBRANCH  35  37
ENDBRANCH  28  35
ENDBRANCH  22  31
ENDBRANCH  21  25
ENDBRANCH   1  21
TORSDOF 9
ENDMDL
MODEL 5
REMARK VINA RESULT:      -5.9     17.035     20.169
REMARK  Name = pdb/CHEMBL3974062.pdb
REMARK                            x       y       z     vdW  Elec       q    Type
REMARK                         _______ _______ _______ _____ _____    ______ ____
ROOT
ATOM      1  C   LIG    1      -26.309  83.368  37.063  0.00  0.00    +0.323 A 
ATOM      2  N   LIG    1      -26.231  84.395  36.200  0.00  0.00    -0.201 NA
ATOM      3  C   LIG    1      -27.431  84.906  35.770  0.00  0.00    +0.145 A 
ATOM      4  C   LIG    1      -28.681  84.428  36.122  0.00  0.00    +0.105 A 
ATOM      5  C   LIG    1      -28.595  83.312  36.928  0.00  0.00    +0.145 A 
ATOM      6  N   LIG    1      -27.466  82.838  37.459  0.00  0.00    -0.201 NA
ENDROOT
BRANCH   4   7
ATOM      7  N   LIG    1      -29.928  85.016  35.730  0.00  0.00    -0.196 NA
ATOM      8  C   LIG    1      -30.330  84.783  34.527  0.00  0.00    +0.285 C 
BRANCH   8   9
ATOM      9  N   LIG    1      -31.457  85.299  33.913  0.00  0.00    -0.267 N 
ATOM     10  H   LIG    1      -32.232  85.437  34.553  0.00  0.00    +0.157 HD
BRANCH   9  11
ATOM     11  C   LIG    1      -31.752  85.482  32.535  0.00  0.00    +0.073 A 
ATOM     12  C   LIG    1      -31.090  86.417  31.711  0.00  0.00    +0.145 A 
ATOM     13  F   LIG    1      -30.255  87.318  32.250  0.00  0.00    -0.204 F 
ATOM     14  C   LIG    1      -31.231  86.470  30.329  0.00  0.00    +0.043 A 
ATOM     15  C   LIG    1      -32.119  85.609  29.712  0.00  0.00    +0.041 A 
ATOM     16  C   LIG    1      -32.847  84.722  30.498  0.00  0.00    +0.125 A 
ATOM     17  F   LIG    1      -33.720  83.903  29.900  0.00  0.00    -0.205 F 
ATOM     18  C   LIG    1      -32.678  84.650  31.890  0.00  0.00    +0.064 A 
ENDBRANCH   9  11
ENDBRANCH   8   9
BRANCH   8  19
ATOM     19  O   LIG    1      -29.638  83.906  33.776  0.00  0.00    -0.481 OA
ATOM     20  H   LIG    1      -30.118  83.089  33.624  0.00  0.00    +0.295 HD
ENDBRANCH   8  19
ENDBRANCH   4   7
BRANCH   1  21
ATOM     21  O   LIG    1      -25.116  82.822  37.557  0.00  0.00    -0.424 OA
BRANCH  21  25
ATOM     22  C   LIG    1      -22.783  80.268  35.113  0.00  0.00    -0.010 A 
ATOM     23  C   LIG    1      -22.339  81.542  35.494  0.00  0.00    +0.012 A 
ATOM     24  C   LIG    1      -23.125  82.372  36.321  0.00  0.00    +0.047 A 
ATOM     25  C   LIG    1      -24.386  81.954  36.755  0.00  0.00    +0.132 A 
ATOM     26  C   LIG    1      -24.837  80.706  36.320  0.00  0.00    +0.047 A 
ATOM     27  C   LIG    1      -24.029  79.853  35.583  0.00  0.00    +0.012 A 
BRANCH  22  31
ATOM     28  N   LIG    1      -21.192  76.017  32.852  0.00  0.00    -0.261 NA
ATOM     29  C   LIG    1      -21.312  77.268  33.096  0.00  0.00    +0.167 A 
ATOM     30  S   LIG    1      -22.817  78.187  33.236  0.00  0.00    -0.050 S 
ATOM     31  C   LIG    1      -22.006  79.374  34.252  0.00  0.00    +0.039 A 
ATOM     32  C   LIG    1      -20.675  79.199  34.188  0.00  0.00    +0.100 A 
ATOM     33  N   LIG    1      -20.280  78.113  33.434  0.00  0.00    -0.340 N 
ATOM     34  H   LIG    1      -19.387  77.682  33.626  0.00  0.00    +0.167 HD
BRANCH  28  35
ATOM     35  C   LIG    1      -22.391  75.192  32.695  0.00  0.00    +0.144 C 
BRANCH  35  37
ATOM     36  C   LIG    1      -24.195  75.129  30.940  0.00  0.00    +0.005 C 
ATOM     37  C   LIG    1      -22.709  74.975  31.221  0.00  0.00    +0.020 C 
ENDBRANCH  35  37
ENDBRANCH  28  35
ENDBRANCH  22  31
ENDBRANCH  21  25
ENDBRANCH   1  21
TORSDOF 9
ENDMDL
MODEL 6
REMARK VINA RESULT:      -5.9      5.812     11.445
REMARK  Name = pdb/CHEMBL3974062.pdb
REMARK                            x       y       z     vdW  Elec       q    Type
REMARK                         _______ _______ _______ _____ _____    ______ ____
ROOT
ATOM      1  C   LIG    1      -35.096  70.806  27.352  0.00  0.00    +0.323 A 
ATOM      2  N   LIG    1      -33.989  70.063  27.181  0.00  0.00    -0.201 NA
ATOM      3  C   LIG    1      -33.975  69.260  26.068  0.00  0.00    +0.145 A 
ATOM      4  C   LIG    1      -35.006  69.135  25.153  0.00  0.00    +0.105 A 
ATOM      5  C   LIG    1      -36.108  69.879  25.518  0.00  0.00    +0.145 A 
ATOM      6  N   LIG    1      -36.141  70.754  26.526  0.00  0.00    -0.201 NA
ENDROOT
BRANCH   4   7
ATOM      7  N   LIG    1      -34.951  68.353  23.952  0.00  0.00    -0.196 NA
ATOM      8  C   LIG    1      -34.771  67.084  24.091  0.00  0.00    +0.285 C 
BRANCH   8   9
ATOM      9  N   LIG    1      -34.616  66.152  23.081  0.00  0.00    -0.267 N 
ATOM     10  H   LIG    1      -34.187  65.288  23.399  0.00  0.00    +0.157 HD
BRANCH   9  11
ATOM     11  C   LIG    1      -34.783  66.279  21.677  0.00  0.00    +0.073 A 
ATOM     12  C   LIG    1      -36.026  66.533  21.057  0.00  0.00    +0.145 A 
ATOM     13  F   LIG    1      -37.158  66.487  21.775  0.00  0.00    -0.204 F 
ATOM     14  C   LIG    1      -36.172  66.852  19.711  0.00  0.00    +0.043 A 
ATOM     15  C   LIG    1      -35.053  66.860  18.900  0.00  0.00    +0.041 A 
ATOM     16  C   LIG    1      -33.819  66.543  19.457  0.00  0.00    +0.125 A 
ATOM     17  F   LIG    1      -32.741  66.532  18.664  0.00  0.00    -0.205 F 
ATOM     18  C   LIG    1      -33.672  66.252  20.823  0.00  0.00    +0.064 A 
ENDBRANCH   9  11
ENDBRANCH   8   9
BRANCH   8  19
ATOM     19  O   LIG    1      -34.785  66.564  25.333  0.00  0.00    -0.481 OA
ATOM     20  H   LIG    1      -34.175  67.007  25.926  0.00  0.00    +0.295 HD
ENDBRANCH   8  19
ENDBRANCH   4   7
BRANCH   1  21
ATOM     21  O   LIG    1      -35.156  71.666  28.458  0.00  0.00    -0.424 OA
BRANCH  21  25
ATOM     22  C   LIG    1      -34.123  75.744  27.975  0.00  0.00    -0.010 A 
ATOM     23  C   LIG    1      -35.437  75.285  27.803  0.00  0.00    +0.012 A 
ATOM     24  C   LIG    1      -35.763  73.924  27.983  0.00  0.00    +0.047 A 
ATOM     25  C   LIG    1      -34.773  72.992  28.306  0.00  0.00    +0.132 A 
ATOM     26  C   LIG    1      -33.461  73.457  28.417  0.00  0.00    +0.047 A 
ATOM     27  C   LIG    1      -33.154  74.806  28.330  0.00  0.00    +0.012 A 
BRANCH  22  31
ATOM     28  N   LIG    1      -34.523  80.744  27.228  0.00  0.00    -0.261 NA
ATOM     29  C   LIG    1      -33.984  79.616  27.509  0.00  0.00    +0.167 A 
ATOM     30  S   LIG    1      -34.566  78.421  28.677  0.00  0.00    -0.050 S 
ATOM     31  C   LIG    1      -33.736  77.145  27.793  0.00  0.00    +0.039 A 
ATOM     32  C   LIG    1      -32.878  77.682  26.910  0.00  0.00    +0.100 A 
ATOM     33  N   LIG    1      -32.914  79.061  26.849  0.00  0.00    -0.340 N 
ATOM     34  H   LIG    1      -32.618  79.521  26.000  0.00  0.00    +0.167 HD
BRANCH  28  35
ATOM     35  C   LIG    1      -35.774  81.132  27.879  0.00  0.00    +0.144 C 
BRANCH  35  37
ATOM     36  C   LIG    1      -36.175  83.022  26.265  0.00  0.00    +0.005 C 
ATOM     37  C   LIG    1      -36.022  82.627  27.725  0.00  0.00    +0.020 C 
ENDBRANCH  35  37
ENDBRANCH  28  35
ENDBRANCH  22  31
ENDBRANCH  21  25
ENDBRANCH   1  21
TORSDOF 9
ENDMDL
MODEL 7
REMARK VINA RESULT:      -5.8     17.399     20.504
REMARK  Name = pdb/CHEMBL3974062.pdb
REMARK                            x       y       z     vdW  Elec       q    Type
REMARK                         _______ _______ _______ _____ _____    ______ ____
ROOT
ATOM      1  C   LIG    1      -26.425  83.652  37.170  0.00  0.00    +0.323 A 
ATOM      2  N   LIG    1      -27.620  83.227  37.614  0.00  0.00    -0.201 NA
ATOM      3  C   LIG    1      -28.716  83.839  37.057  0.00  0.00    +0.145 A 
ATOM      4  C   LIG    1      -28.679  84.863  36.127  0.00  0.00    +0.105 A 
ATOM      5  C   LIG    1      -27.387  85.258  35.850  0.00  0.00    +0.145 A 
ATOM      6  N   LIG    1      -26.288  84.632  36.278  0.00  0.00    -0.201 NA
ENDROOT
BRANCH   4   7
ATOM      7  N   LIG    1      -29.827  85.444  35.495  0.00  0.00    -0.196 NA
ATOM      8  C   LIG    1      -30.168  84.962  34.349  0.00  0.00    +0.285 C 
BRANCH   8   9
ATOM      9  N   LIG    1      -31.188  85.408  33.529  0.00  0.00    -0.267 N 
ATOM     10  H   LIG    1      -32.059  84.904  33.666  0.00  0.00    +0.157 HD
BRANCH   9  11
ATOM     11  C   LIG    1      -31.160  86.304  32.428  0.00  0.00    +0.073 A 
ATOM     12  C   LIG    1      -31.360  85.904  31.089  0.00  0.00    +0.145 A 
ATOM     13  F   LIG    1      -31.412  84.600  30.776  0.00  0.00    -0.204 F 
ATOM     14  C   LIG    1      -31.528  86.790  30.030  0.00  0.00    +0.043 A 
ATOM     15  C   LIG    1      -31.428  88.148  30.271  0.00  0.00    +0.041 A 
ATOM     16  C   LIG    1      -31.157  88.581  31.565  0.00  0.00    +0.125 A 
ATOM     17  F   LIG    1      -31.041  89.895  31.790  0.00  0.00    -0.205 F 
ATOM     18  C   LIG    1      -31.019  87.683  32.636  0.00  0.00    +0.064 A 
ENDBRANCH   9  11
ENDBRANCH   8   9
BRANCH   8  19
ATOM     19  O   LIG    1      -29.521  83.873  33.892  0.00  0.00    -0.481 OA
ATOM     20  H   LIG    1      -29.372  83.902  32.944  0.00  0.00    +0.295 HD
ENDBRANCH   8  19
ENDBRANCH   4   7
BRANCH   1  21
ATOM     21  O   LIG    1      -25.270  83.044  37.683  0.00  0.00    -0.424 OA
BRANCH  21  25
ATOM     22  C   LIG    1      -23.103  80.397  35.187  0.00  0.00    -0.010 A 
ATOM     23  C   LIG    1      -24.344  80.049  35.741  0.00  0.00    +0.012 A 
ATOM     24  C   LIG    1      -25.057  80.951  36.558  0.00  0.00    +0.047 A 
ATOM     25  C   LIG    1      -24.525  82.207  36.863  0.00  0.00    +0.132 A 
ATOM     26  C   LIG    1      -23.263  82.515  36.351  0.00  0.00    +0.047 A 
ATOM     27  C   LIG    1      -22.603  81.666  35.475  0.00  0.00    +0.012 A 
BRANCH  22  31
ATOM     28  N   LIG    1      -21.426  76.103  33.073  0.00  0.00    -0.261 NA
ATOM     29  C   LIG    1      -21.589  77.360  33.260  0.00  0.00    +0.167 A 
ATOM     30  S   LIG    1      -23.125  78.223  33.419  0.00  0.00    -0.050 S 
ATOM     31  C   LIG    1      -22.324  79.492  34.339  0.00  0.00    +0.039 A 
ATOM     32  C   LIG    1      -20.991  79.368  34.227  0.00  0.00    +0.100 A 
ATOM     33  N   LIG    1      -20.581  78.262  33.511  0.00  0.00    -0.340 N 
ATOM     34  H   LIG    1      -19.663  77.877  33.687  0.00  0.00    +0.167 HD
BRANCH  28  35
ATOM     35  C   LIG    1      -22.594  75.224  33.009  0.00  0.00    +0.144 C 
BRANCH  35  37
ATOM     36  C   LIG    1      -23.500  75.140  30.662  0.00  0.00    +0.005 C 
ATOM     37  C   LIG    1      -22.619  74.455  31.694  0.00  0.00    +0.020 C 
ENDBRANCH  35  37
ENDBRANCH  28  35
ENDBRANCH  22  31
ENDBRANCH  21  25
ENDBRANCH   1  21
TORSDOF 9
ENDMDL
MODEL 8
REMARK VINA RESULT:      -5.6      5.090     11.425
REMARK  Name = pdb/CHEMBL3974062.pdb
REMARK                            x       y       z     vdW  Elec       q    Type
REMARK                         _______ _______ _______ _____ _____    ______ ____
ROOT
ATOM      1  C   LIG    1      -39.110  69.002  22.967  0.00  0.00    +0.323 A 
ATOM      2  N   LIG    1      -38.801  67.906  23.681  0.00  0.00    -0.201 NA
ATOM      3  C   LIG    1      -37.794  67.125  23.170  0.00  0.00    +0.145 A 
ATOM      4  C   LIG    1      -37.119  67.357  21.984  0.00  0.00    +0.105 A 
ATOM      5  C   LIG    1      -37.617  68.457  21.317  0.00  0.00    +0.145 A 
ATOM      6  N   LIG    1      -38.517  69.309  21.813  0.00  0.00    -0.201 NA
ENDROOT
BRANCH   4   7
ATOM      7  N   LIG    1      -36.018  66.579  21.497  0.00  0.00    -0.196 NA
ATOM      8  C   LIG    1      -34.840  66.927  21.890  0.00  0.00    +0.285 C 
BRANCH   8   9
ATOM      9  N   LIG    1      -33.635  66.373  21.497  0.00  0.00    -0.267 N 
ATOM     10  H   LIG    1      -32.915  66.440  22.209  0.00  0.00    +0.157 HD
BRANCH   9  11
ATOM     11  C   LIG    1      -33.206  65.909  20.225  0.00  0.00    +0.073 A 
ATOM     12  C   LIG    1      -33.575  64.659  19.683  0.00  0.00    +0.145 A 
ATOM     13  F   LIG    1      -34.219  63.760  20.443  0.00  0.00    -0.204 F 
ATOM     14  C   LIG    1      -33.325  64.278  18.369  0.00  0.00    +0.043 A 
ATOM     15  C   LIG    1      -32.615  65.133  17.547  0.00  0.00    +0.041 A 
ATOM     16  C   LIG    1      -32.169  66.344  18.066  0.00  0.00    +0.125 A 
ATOM     17  F   LIG    1      -31.465  67.160  17.273  0.00  0.00    -0.205 F 
ATOM     18  C   LIG    1      -32.451  66.738  19.384  0.00  0.00    +0.064 A 
ENDBRANCH   9  11
ENDBRANCH   8   9
BRANCH   8  19
ATOM     19  O   LIG    1      -34.732  67.892  22.823  0.00  0.00    -0.481 OA
ATOM     20  H   LIG    1      -33.920  68.398  22.740  0.00  0.00    +0.295 HD
ENDBRANCH   8  19
ENDBRANCH   4   7
BRANCH   1  21
ATOM     21  O   LIG    1      -40.112  69.853  23.453  0.00  0.00    -0.424 OA
BRANCH  21  25
ATOM     22  C   LIG    1      -39.218  73.837  24.577  0.00  0.00    -0.010 A 
ATOM     23  C   LIG    1      -40.416  73.498  23.932  0.00  0.00    +0.012 A 
ATOM     24  C   LIG    1      -40.701  72.161  23.579  0.00  0.00    +0.047 A 
ATOM     25  C   LIG    1      -39.777  71.145  23.836  0.00  0.00    +0.132 A 
ATOM     26  C   LIG    1      -38.565  71.509  24.426  0.00  0.00    +0.047 A 
ATOM     27  C   LIG    1      -38.322  72.805  24.856  0.00  0.00    +0.012 A 
BRANCH  22  31
ATOM     28  N   LIG    1      -39.406  78.897  24.852  0.00  0.00    -0.261 NA
ATOM     29  C   LIG    1      -39.058  77.696  25.132  0.00  0.00    +0.167 A 
ATOM     30  S   LIG    1      -40.129  76.330  25.474  0.00  0.00    -0.050 S 
ATOM     31  C   LIG    1      -38.875  75.209  24.956  0.00  0.00    +0.039 A 
ATOM     32  C   LIG    1      -37.700  75.853  24.851  0.00  0.00    +0.100 A 
ATOM     33  N   LIG    1      -37.773  77.211  25.084  0.00  0.00    -0.340 N 
ATOM     34  H   LIG    1      -37.075  77.816  24.674  0.00  0.00    +0.167 HD
BRANCH  28  35
ATOM     35  C   LIG    1      -40.826  79.235  24.753  0.00  0.00    +0.144 C 
BRANCH  35  37
ATOM     36  C   LIG    1      -42.475  80.713  23.556  0.00  0.00    +0.005 C 
ATOM     37  C   LIG    1      -41.021  80.518  23.955  0.00  0.00    +0.020 C 
ENDBRANCH  35  37
ENDBRANCH  28  35
ENDBRANCH  22  31
ENDBRANCH  21  25
ENDBRANCH   1  21
TORSDOF 9
ENDMDL
MODEL 9
REMARK VINA RESULT:      -5.6     13.790     17.204
REMARK  Name = pdb/CHEMBL3974062.pdb
REMARK                            x       y       z     vdW  Elec       q    Type
REMARK                         _______ _______ _______ _____ _____    ______ ____
ROOT
ATOM      1  C   LIG    1      -25.824  76.693  13.975  0.00  0.00    +0.323 A 
ATOM      2  N   LIG    1      -25.574  76.770  12.656  0.00  0.00    -0.201 NA
ATOM      3  C   LIG    1      -26.665  76.640  11.833  0.00  0.00    +0.145 A 
ATOM      4  C   LIG    1      -27.963  76.404  12.251  0.00  0.00    +0.105 A 
ATOM      5  C   LIG    1      -28.043  76.249  13.619  0.00  0.00    +0.145 A 
ATOM      6  N   LIG    1      -27.039  76.468  14.472  0.00  0.00    -0.201 NA
ENDROOT
BRANCH   4   7
ATOM      7  N   LIG    1      -29.108  76.347  11.389  0.00  0.00    -0.196 NA
ATOM      8  C   LIG    1      -29.948  77.323  11.470  0.00  0.00    +0.285 C 
BRANCH   8   9
ATOM      9  N   LIG    1      -31.148  77.445  10.794  0.00  0.00    -0.267 N 
ATOM     10  H   LIG    1      -31.519  76.555  10.477  0.00  0.00    +0.157 HD
BRANCH   9  11
ATOM     11  C   LIG    1      -31.826  78.600  10.324  0.00  0.00    +0.073 A 
ATOM     12  C   LIG    1      -32.679  79.388  11.127  0.00  0.00    +0.145 A 
ATOM     13  F   LIG    1      -33.032  78.964  12.351  0.00  0.00    -0.204 F 
ATOM     14  C   LIG    1      -33.192  80.621  10.740  0.00  0.00    +0.043 A 
ATOM     15  C   LIG    1      -32.916  81.091   9.470  0.00  0.00    +0.041 A 
ATOM     16  C   LIG    1      -32.139  80.311   8.620  0.00  0.00    +0.125 A 
ATOM     17  F   LIG    1      -31.891  80.760   7.384  0.00  0.00    -0.205 F 
ATOM     18  C   LIG    1      -31.598  79.080   9.027  0.00  0.00    +0.064 A 
ENDBRANCH   9  11
ENDBRANCH   8   9
BRANCH   8  19
ATOM     19  O   LIG    1      -29.632  78.380  12.241  0.00  0.00    -0.481 OA
ATOM     20  H   LIG    1      -29.573  78.155  13.172  0.00  0.00    +0.295 HD
ENDBRANCH   8  19
ENDBRANCH   4   7
BRANCH   1  21
ATOM     21  O   LIG    1      -24.751  76.845  14.865  0.00  0.00    -0.424 OA
BRANCH  21  25
ATOM     22  C   LIG    1      -22.465  80.410  14.855  0.00  0.00    -0.010 A 
ATOM     23  C   LIG    1      -21.876  79.148  14.691  0.00  0.00    +0.012 A 
ATOM     24  C   LIG    1      -22.657  77.974  14.683  0.00  0.00    +0.047 A 
ATOM     25  C   LIG    1      -24.041  78.038  14.871  0.00  0.00    +0.132 A 
ATOM     26  C   LIG    1      -24.603  79.297  15.091  0.00  0.00    +0.047 A 
ATOM     27  C   LIG    1      -23.850  80.459  15.009  0.00  0.00    +0.012 A 
BRANCH  22  31
ATOM     28  N   LIG    1      -21.037  85.153  13.768  0.00  0.00    -0.261 NA
ATOM     29  C   LIG    1      -21.078  84.026  14.377  0.00  0.00    +0.167 A 
ATOM     30  S   LIG    1      -22.516  83.208  15.005  0.00  0.00    -0.050 S 
ATOM     31  C   LIG    1      -21.695  81.656  14.877  0.00  0.00    +0.039 A 
ATOM     32  C   LIG    1      -20.381  81.847  14.675  0.00  0.00    +0.100 A 
ATOM     33  N   LIG    1      -20.014  83.170  14.535  0.00  0.00    -0.340 N 
ATOM     34  H   LIG    1      -19.173  83.394  14.021  0.00  0.00    +0.167 HD
BRANCH  28  35
ATOM     35  C   LIG    1      -22.279  85.877  13.500  0.00  0.00    +0.144 C 
BRANCH  35  37
ATOM     36  C   LIG    1      -21.957  87.480  15.414  0.00  0.00    +0.005 C 
ATOM     37  C   LIG    1      -22.153  87.338  13.914  0.00  0.00    +0.020 C 
ENDBRANCH  35  37
ENDBRANCH  28  35
ENDBRANCH  22  31
ENDBRANCH  21  25
ENDBRANCH   1  21
TORSDOF 9
ENDMDL
