MODEL 1
REMARK VINA RESULT:      -6.1      0.000      0.000
REMARK  Name = pdb/CHEMBL3675918.pdb
REMARK                            x       y       z     vdW  Elec       q    Type
REMARK                         _______ _______ _______ _____ _____    ______ ____
ROOT
ATOM      1  C   LIG    1      -23.029  76.886  30.736  0.00  0.00    +0.100 A 
ATOM      2  C   LIG    1      -22.021  77.383  31.539  0.00  0.00    +0.170 A 
ATOM      3  N   LIG    1      -21.968  77.751  32.867  0.00  0.00    -0.212 NA
ATOM      4  C   LIG    1      -20.817  78.165  33.357  0.00  0.00    +0.126 A 
ATOM      5  C   LIG    1      -19.564  78.226  32.507  0.00  0.00    +0.063 A 
ATOM      6  C   LIG    1      -19.673  77.877  31.222  0.00  0.00    +0.118 A 
ATOM      7  N   LIG    1      -20.890  77.461  30.718  0.00  0.00    -0.221 N 
ATOM      8  N   LIG    1      -21.143  77.074  29.448  0.00  0.00    -0.173 NA
ATOM      9  C   LIG    1      -22.422  76.714  29.470  0.00  0.00    +0.150 A 
ENDROOT
BRANCH   4  10
ATOM     10  N   LIG    1      -20.725  78.558  34.689  0.00  0.00    -0.308 N 
ATOM     11  C   LIG    1      -20.535  79.965  35.094  0.00  0.00    +0.108 C 
ATOM     12  C   LIG    1      -19.520  79.848  36.246  0.00  0.00    +0.029 C 
ATOM     13  C   LIG    1      -19.875  78.532  36.920  0.00  0.00    +0.021 C 
ATOM     14  C   LIG    1      -20.281  77.645  35.751  0.00  0.00    +0.107 C 
BRANCH  11  15
ATOM     15  C   LIG    1      -21.846  80.619  35.516  0.00  0.00    +0.011 A 
ATOM     16  C   LIG    1      -21.852  81.922  36.039  0.00  0.00    +0.129 A 
ATOM     17  F   LIG    1      -20.707  82.615  36.120  0.00  0.00    -0.205 F 
ATOM     18  C   LIG    1      -23.031  82.537  36.482  0.00  0.00    +0.041 A 
ATOM     19  C   LIG    1      -24.243  81.858  36.393  0.00  0.00    +0.041 A 
ATOM     20  C   LIG    1      -24.257  80.576  35.860  0.00  0.00    +0.124 A 
ATOM     21  F   LIG    1      -25.419  79.917  35.755  0.00  0.00    -0.205 F 
ATOM     22  C   LIG    1      -23.083  79.959  35.432  0.00  0.00    +0.046 A 
ENDBRANCH  11  15
ENDBRANCH   4  10
BRANCH   1  25
ATOM     23  N   LIG    1      -24.685  75.993  32.231  0.00  0.00    -0.304 N 
ATOM     24  H   LIG    1      -23.880  75.704  32.781  0.00  0.00    +0.150 HD
ATOM     25  C   LIG    1      -24.414  76.579  31.027  0.00  0.00    +0.250 C 
ATOM     26  O   LIG    1      -25.304  76.857  30.207  0.00  0.00    -0.270 OA
BRANCH  23  28
ATOM     27  C   LIG    1      -26.990  76.824  32.610  0.00  0.00    +0.034 C 
ATOM     28  C   LIG    1      -26.043  75.611  32.671  0.00  0.00    +0.057 C 
ATOM     29  C   LIG    1      -25.967  75.146  34.136  0.00  0.00    +0.034 C 
BRANCH  28  30
ATOM     30  C   LIG    1      -26.632  74.452  31.835  0.00  0.00    +0.238 C 
ATOM     31  F   LIG    1      -25.620  73.722  31.285  0.00  0.00    -0.247 F 
ENDBRANCH  28  30
ENDBRANCH  23  28
ENDBRANCH   1  25
TORSDOF 5
ENDMDL
MODEL 2
REMARK VINA RESULT:      -6.0      2.428      4.881
REMARK  Name = pdb/CHEMBL3675918.pdb
REMARK                            x       y       z     vdW  Elec       q    Type
REMARK                         _______ _______ _______ _____ _____    ______ ____
ROOT
ATOM      1  C   LIG    1      -25.478  77.280  33.243  0.00  0.00    +0.100 A 
ATOM      2  C   LIG    1      -24.998  78.192  34.164  0.00  0.00    +0.170 A 
ATOM      3  N   LIG    1      -23.801  78.863  34.291  0.00  0.00    -0.212 NA
ATOM      4  C   LIG    1      -23.663  79.716  35.286  0.00  0.00    +0.126 A 
ATOM      5  C   LIG    1      -24.785  79.983  36.269  0.00  0.00    +0.063 A 
ATOM      6  C   LIG    1      -25.917  79.292  36.114  0.00  0.00    +0.118 A 
ATOM      7  N   LIG    1      -26.043  78.389  35.076  0.00  0.00    -0.221 N 
ATOM      8  N   LIG    1      -27.127  77.633  34.796  0.00  0.00    -0.173 NA
ATOM      9  C   LIG    1      -26.788  76.983  33.687  0.00  0.00    +0.150 A 
ENDROOT
BRANCH   4  10
ATOM     10  N   LIG    1      -22.465  80.403  35.457  0.00  0.00    -0.308 N 
ATOM     11  C   LIG    1      -21.281  79.798  36.099  0.00  0.00    +0.108 C 
ATOM     12  C   LIG    1      -20.746  80.949  36.970  0.00  0.00    +0.029 C 
ATOM     13  C   LIG    1      -21.059  82.199  36.164  0.00  0.00    +0.021 C 
ATOM     14  C   LIG    1      -22.401  81.870  35.524  0.00  0.00    +0.107 C 
BRANCH  11  15
ATOM     15  C   LIG    1      -20.267  79.302  35.074  0.00  0.00    +0.011 A 
ATOM     16  C   LIG    1      -18.978  78.920  35.479  0.00  0.00    +0.129 A 
ATOM     17  F   LIG    1      -18.652  78.943  36.779  0.00  0.00    -0.205 F 
ATOM     18  C   LIG    1      -18.006  78.506  34.560  0.00  0.00    +0.041 A 
ATOM     19  C   LIG    1      -18.313  78.448  33.203  0.00  0.00    +0.041 A 
ATOM     20  C   LIG    1      -19.589  78.803  32.788  0.00  0.00    +0.124 A 
ATOM     21  F   LIG    1      -19.903  78.739  31.487  0.00  0.00    -0.205 F 
ATOM     22  C   LIG    1      -20.554  79.229  33.700  0.00  0.00    +0.046 A 
ENDBRANCH  11  15
ENDBRANCH   4  10
BRANCH   1  25
ATOM     23  N   LIG    1      -23.517  76.463  32.119  0.00  0.00    -0.304 N 
ATOM     24  H   LIG    1      -23.028  76.825  32.934  0.00  0.00    +0.150 HD
ATOM     25  C   LIG    1      -24.862  76.701  32.068  0.00  0.00    +0.250 C 
ATOM     26  O   LIG    1      -25.549  76.428  31.071  0.00  0.00    -0.270 OA
BRANCH  23  28
ATOM     27  C   LIG    1      -23.329  74.526  30.585  0.00  0.00    +0.034 C 
ATOM     28  C   LIG    1      -22.742  75.887  31.000  0.00  0.00    +0.057 C 
ATOM     29  C   LIG    1      -21.299  75.651  31.479  0.00  0.00    +0.034 C 
BRANCH  28  30
ATOM     30  C   LIG    1      -22.688  76.824  29.773  0.00  0.00    +0.238 C 
ATOM     31  F   LIG    1      -21.933  76.252  28.791  0.00  0.00    -0.247 F 
ENDBRANCH  28  30
ENDBRANCH  23  28
ENDBRANCH   1  25
TORSDOF 5
ENDMDL
MODEL 3
REMARK VINA RESULT:      -5.9     16.236     20.360
REMARK  Name = pdb/CHEMBL3675918.pdb
REMARK                            x       y       z     vdW  Elec       q    Type
REMARK                         _______ _______ _______ _____ _____    ______ ____
ROOT
ATOM      1  C   LIG    1      -35.390  67.688  23.247  0.00  0.00    +0.100 A 
ATOM      2  C   LIG    1      -36.517  68.047  22.531  0.00  0.00    +0.170 A 
ATOM      3  N   LIG    1      -37.662  68.740  22.862  0.00  0.00    -0.212 NA
ATOM      4  C   LIG    1      -38.559  68.954  21.920  0.00  0.00    +0.126 A 
ATOM      5  C   LIG    1      -38.351  68.474  20.498  0.00  0.00    +0.063 A 
ATOM      6  C   LIG    1      -37.234  67.790  20.235  0.00  0.00    +0.118 A 
ATOM      7  N   LIG    1      -36.310  67.560  21.235  0.00  0.00    -0.221 N 
ATOM      8  N   LIG    1      -35.141  66.894  21.111  0.00  0.00    -0.173 NA
ATOM      9  C   LIG    1      -34.587  66.989  22.315  0.00  0.00    +0.150 A 
ENDROOT
BRANCH   4  10
ATOM     10  N   LIG    1      -39.734  69.637  22.215  0.00  0.00    -0.308 N 
ATOM     11  C   LIG    1      -40.116  70.011  23.592  0.00  0.00    +0.108 C 
ATOM     12  C   LIG    1      -41.627  69.718  23.612  0.00  0.00    +0.029 C 
ATOM     13  C   LIG    1      -42.087  70.044  22.201  0.00  0.00    +0.021 C 
ATOM     14  C   LIG    1      -40.915  69.587  21.342  0.00  0.00    +0.107 C 
BRANCH  11  15
ATOM     15  C   LIG    1      -39.786  71.468  23.899  0.00  0.00    +0.011 A 
ATOM     16  C   LIG    1      -38.617  71.796  24.605  0.00  0.00    +0.129 A 
ATOM     17  F   LIG    1      -37.761  70.830  24.967  0.00  0.00    -0.205 F 
ATOM     18  C   LIG    1      -38.306  73.119  24.948  0.00  0.00    +0.041 A 
ATOM     19  C   LIG    1      -39.159  74.153  24.570  0.00  0.00    +0.041 A 
ATOM     20  C   LIG    1      -40.308  73.847  23.855  0.00  0.00    +0.124 A 
ATOM     21  F   LIG    1      -41.130  74.833  23.473  0.00  0.00    -0.205 F 
ATOM     22  C   LIG    1      -40.626  72.530  23.525  0.00  0.00    +0.046 A 
ENDBRANCH  11  15
ENDBRANCH   4  10
BRANCH   1  25
ATOM     23  N   LIG    1      -35.155  69.199  25.100  0.00  0.00    -0.304 N 
ATOM     24  H   LIG    1      -35.383  69.912  24.411  0.00  0.00    +0.150 HD
ATOM     25  C   LIG    1      -35.024  67.924  24.627  0.00  0.00    +0.250 C 
ATOM     26  O   LIG    1      -34.623  66.988  25.338  0.00  0.00    -0.270 OA
BRANCH  23  28
ATOM     27  C   LIG    1      -35.856  69.052  27.473  0.00  0.00    +0.034 C 
ATOM     28  C   LIG    1      -34.815  69.602  26.481  0.00  0.00    +0.057 C 
ATOM     29  C   LIG    1      -34.852  71.138  26.563  0.00  0.00    +0.034 C 
BRANCH  28  30
ATOM     30  C   LIG    1      -33.402  69.137  26.902  0.00  0.00    +0.238 C 
ATOM     31  F   LIG    1      -32.977  69.871  27.971  0.00  0.00    -0.247 F 
ENDBRANCH  28  30
ENDBRANCH  23  28
ENDBRANCH   1  25
TORSDOF 5
ENDMDL
MODEL 4
REMARK VINA RESULT:      -5.8      2.120      2.852
REMARK  Name = pdb/CHEMBL3675918.pdb
REMARK                            x       y       z     vdW  Elec       q    Type
REMARK                         _______ _______ _______ _____ _____    ______ ____
ROOT
ATOM      1  C   LIG    1      -20.093  77.070  30.778  0.00  0.00    +0.100 A 
ATOM      2  C   LIG    1      -19.550  77.641  31.913  0.00  0.00    +0.170 A 
ATOM      3  N   LIG    1      -20.105  78.194  33.048  0.00  0.00    -0.212 NA
ATOM      4  C   LIG    1      -19.295  78.633  33.991  0.00  0.00    +0.126 A 
ATOM      5  C   LIG    1      -17.789  78.526  33.862  0.00  0.00    +0.063 A 
ATOM      6  C   LIG    1      -17.303  78.001  32.735  0.00  0.00    +0.118 A 
ATOM      7  N   LIG    1      -18.162  77.560  31.748  0.00  0.00    -0.221 N 
ATOM      8  N   LIG    1      -17.812  77.003  30.567  0.00  0.00    -0.173 NA
ATOM      9  C   LIG    1      -18.974  76.697  29.999  0.00  0.00    +0.150 A 
ENDROOT
BRANCH   4  10
ATOM     10  N   LIG    1      -19.815  79.211  35.145  0.00  0.00    -0.308 N 
ATOM     11  C   LIG    1      -20.871  80.242  35.117  0.00  0.00    +0.108 C 
ATOM     12  C   LIG    1      -20.405  81.229  36.202  0.00  0.00    +0.029 C 
ATOM     13  C   LIG    1      -19.737  80.347  37.244  0.00  0.00    +0.021 C 
ATOM     14  C   LIG    1      -19.057  79.275  36.403  0.00  0.00    +0.107 C 
BRANCH  11  15
ATOM     15  C   LIG    1      -22.250  79.653  35.396  0.00  0.00    +0.011 A 
ATOM     16  C   LIG    1      -23.384  80.481  35.410  0.00  0.00    +0.129 A 
ATOM     17  F   LIG    1      -23.264  81.785  35.126  0.00  0.00    -0.205 F 
ATOM     18  C   LIG    1      -24.659  79.984  35.710  0.00  0.00    +0.041 A 
ATOM     19  C   LIG    1      -24.829  78.630  35.988  0.00  0.00    +0.041 A 
ATOM     20  C   LIG    1      -23.721  77.795  35.960  0.00  0.00    +0.124 A 
ATOM     21  F   LIG    1      -23.872  76.488  36.211  0.00  0.00    -0.205 F 
ATOM     22  C   LIG    1      -22.449  78.290  35.675  0.00  0.00    +0.046 A 
ENDBRANCH  11  15
ENDBRANCH   4  10
BRANCH   1  25
ATOM     23  N   LIG    1      -22.423  76.969  31.359  0.00  0.00    -0.304 N 
ATOM     24  H   LIG    1      -22.082  77.071  32.312  0.00  0.00    +0.150 HD
ATOM     25  C   LIG    1      -21.471  76.858  30.385  0.00  0.00    +0.250 C 
ATOM     26  O   LIG    1      -21.753  76.600  29.204  0.00  0.00    -0.270 OA
BRANCH  23  28
ATOM     27  C   LIG    1      -24.681  77.200  32.356  0.00  0.00    +0.034 C 
ATOM     28  C   LIG    1      -23.868  76.772  31.120  0.00  0.00    +0.057 C 
ATOM     29  C   LIG    1      -24.123  75.272  30.886  0.00  0.00    +0.034 C 
BRANCH  28  30
ATOM     30  C   LIG    1      -24.373  77.539  29.877  0.00  0.00    +0.238 C 
ATOM     31  F   LIG    1      -24.777  78.790  30.241  0.00  0.00    -0.247 F 
ENDBRANCH  28  30
ENDBRANCH  23  28
ENDBRANCH   1  25
TORSDOF 5
ENDMDL
MODEL 5
REMARK VINA RESULT:      -5.7     18.180     21.399
REMARK  Name = pdb/CHEMBL3675918.pdb
REMARK                            x       y       z     vdW  Elec       q    Type
REMARK                         _______ _______ _______ _____ _____    ______ ____
ROOT
ATOM      1  C   LIG    1      -18.726  85.659  13.025  0.00  0.00    +0.100 A 
ATOM      2  C   LIG    1      -18.957  84.368  13.461  0.00  0.00    +0.170 A 
ATOM      3  N   LIG    1      -20.020  83.764  14.097  0.00  0.00    -0.212 NA
ATOM      4  C   LIG    1      -19.947  82.474  14.353  0.00  0.00    +0.126 A 
ATOM      5  C   LIG    1      -18.741  81.648  13.950  0.00  0.00    +0.063 A 
ATOM      6  C   LIG    1      -17.730  82.285  13.354  0.00  0.00    +0.118 A 
ATOM      7  N   LIG    1      -17.814  83.641  13.107  0.00  0.00    -0.221 N 
ATOM      8  N   LIG    1      -16.876  84.408  12.508  0.00  0.00    -0.173 NA
ATOM      9  C   LIG    1      -17.435  85.612  12.446  0.00  0.00    +0.150 A 
ENDROOT
BRANCH   4  10
ATOM     10  N   LIG    1      -20.993  81.830  15.007  0.00  0.00    -0.308 N 
ATOM     11  C   LIG    1      -22.273  82.497  15.316  0.00  0.00    +0.108 C 
ATOM     12  C   LIG    1      -22.584  81.986  16.734  0.00  0.00    +0.029 C 
ATOM     13  C   LIG    1      -22.035  80.569  16.746  0.00  0.00    +0.021 C 
ATOM     14  C   LIG    1      -20.777  80.679  15.895  0.00  0.00    +0.107 C 
BRANCH  11  15
ATOM     15  C   LIG    1      -23.358  82.146  14.303  0.00  0.00    +0.011 A 
ATOM     16  C   LIG    1      -23.546  82.942  13.162  0.00  0.00    +0.129 A 
ATOM     17  F   LIG    1      -22.735  83.985  12.933  0.00  0.00    -0.205 F 
ATOM     18  C   LIG    1      -24.563  82.679  12.235  0.00  0.00    +0.041 A 
ATOM     19  C   LIG    1      -25.411  81.591  12.425  0.00  0.00    +0.041 A 
ATOM     20  C   LIG    1      -25.226  80.783  13.539  0.00  0.00    +0.124 A 
ATOM     21  F   LIG    1      -26.026  79.725  13.727  0.00  0.00    -0.205 F 
ATOM     22  C   LIG    1      -24.223  81.052  14.469  0.00  0.00    +0.046 A 
ENDBRANCH  11  15
ENDBRANCH   4  10
BRANCH   1  25
ATOM     23  N   LIG    1      -20.880  86.706  12.831  0.00  0.00    -0.304 N 
ATOM     24  H   LIG    1      -21.173  85.797  12.482  0.00  0.00    +0.150 HD
ATOM     25  C   LIG    1      -19.547  86.849  13.096  0.00  0.00    +0.250 C 
ATOM     26  O   LIG    1      -19.042  87.941  13.401  0.00  0.00    -0.270 OA
BRANCH  23  28
ATOM     27  C   LIG    1      -23.270  87.310  12.575  0.00  0.00    +0.034 C 
ATOM     28  C   LIG    1      -21.846  87.825  12.853  0.00  0.00    +0.057 C 
ATOM     29  C   LIG    1      -21.474  88.811  11.732  0.00  0.00    +0.034 C 
BRANCH  28  30
ATOM     30  C   LIG    1      -21.826  88.598  14.191  0.00  0.00    +0.238 C 
ATOM     31  F   LIG    1      -23.070  88.579  14.751  0.00  0.00    -0.247 F 
ENDBRANCH  28  30
ENDBRANCH  23  28
ENDBRANCH   1  25
TORSDOF 5
ENDMDL
MODEL 6
REMARK VINA RESULT:      -5.7     13.512     18.101
REMARK  Name = pdb/CHEMBL3675918.pdb
REMARK                            x       y       z     vdW  Elec       q    Type
REMARK                         _______ _______ _______ _____ _____    ______ ____
ROOT
ATOM      1  C   LIG    1      -37.686  76.518  25.922  0.00  0.00    +0.100 A 
ATOM      2  C   LIG    1      -38.305  75.430  25.336  0.00  0.00    +0.170 A 
ATOM      3  N   LIG    1      -38.028  74.079  25.330  0.00  0.00    -0.212 NA
ATOM      4  C   LIG    1      -38.851  73.274  24.689  0.00  0.00    +0.126 A 
ATOM      5  C   LIG    1      -40.089  73.794  23.986  0.00  0.00    +0.063 A 
ATOM      6  C   LIG    1      -40.301  75.112  24.006  0.00  0.00    +0.118 A 
ATOM      7  N   LIG    1      -39.421  75.946  24.667  0.00  0.00    -0.221 N 
ATOM      8  N   LIG    1      -39.514  77.290  24.775  0.00  0.00    -0.173 NA
ATOM      9  C   LIG    1      -38.482  77.625  25.542  0.00  0.00    +0.150 A 
ENDROOT
BRANCH   4  10
ATOM     10  N   LIG    1      -38.600  71.906  24.647  0.00  0.00    -0.308 N 
ATOM     11  C   LIG    1      -37.235  71.343  24.682  0.00  0.00    +0.108 C 
ATOM     12  C   LIG    1      -37.315  70.205  23.649  0.00  0.00    +0.029 C 
ATOM     13  C   LIG    1      -38.737  69.686  23.778  0.00  0.00    +0.021 C 
ATOM     14  C   LIG    1      -39.542  70.950  24.048  0.00  0.00    +0.107 C 
BRANCH  11  15
ATOM     15  C   LIG    1      -36.854  70.859  26.077  0.00  0.00    +0.011 A 
ATOM     16  C   LIG    1      -35.506  70.654  26.413  0.00  0.00    +0.129 A 
ATOM     17  F   LIG    1      -34.545  70.934  25.521  0.00  0.00    -0.205 F 
ATOM     18  C   LIG    1      -35.122  70.164  27.668  0.00  0.00    +0.041 A 
ATOM     19  C   LIG    1      -36.090  69.884  28.629  0.00  0.00    +0.041 A 
ATOM     20  C   LIG    1      -37.425  70.100  28.320  0.00  0.00    +0.124 A 
ATOM     21  F   LIG    1      -38.365  69.847  29.240  0.00  0.00    -0.205 F 
ATOM     22  C   LIG    1      -37.810  70.574  27.067  0.00  0.00    +0.046 A 
ENDBRANCH  11  15
ENDBRANCH   4  10
BRANCH   1  25
ATOM     23  N   LIG    1      -35.861  75.441  27.055  0.00  0.00    -0.304 N 
ATOM     24  H   LIG    1      -36.337  74.584  26.783  0.00  0.00    +0.150 HD
ATOM     25  C   LIG    1      -36.501  76.609  26.747  0.00  0.00    +0.250 C 
ATOM     26  O   LIG    1      -36.091  77.714  27.137  0.00  0.00    -0.270 OA
BRANCH  23  28
ATOM     27  C   LIG    1      -34.185  73.904  28.041  0.00  0.00    +0.034 C 
ATOM     28  C   LIG    1      -34.647  75.366  27.893  0.00  0.00    +0.057 C 
ATOM     29  C   LIG    1      -34.991  75.894  29.297  0.00  0.00    +0.034 C 
BRANCH  28  30
ATOM     30  C   LIG    1      -33.487  76.221  27.334  0.00  0.00    +0.238 C 
ATOM     31  F   LIG    1      -32.467  76.259  28.239  0.00  0.00    -0.247 F 
ENDBRANCH  28  30
ENDBRANCH  23  28
ENDBRANCH   1  25
TORSDOF 5
ENDMDL
MODEL 7
REMARK VINA RESULT:      -5.5     17.829     20.907
REMARK  Name = pdb/CHEMBL3675918.pdb
REMARK                            x       y       z     vdW  Elec       q    Type
REMARK                         _______ _______ _______ _____ _____    ______ ____
ROOT
ATOM      1  C   LIG    1      -19.212  85.215  12.958  0.00  0.00    +0.100 A 
ATOM      2  C   LIG    1      -19.331  83.876  13.278  0.00  0.00    +0.170 A 
ATOM      3  N   LIG    1      -20.103  83.189  14.191  0.00  0.00    -0.212 NA
ATOM      4  C   LIG    1      -20.009  81.875  14.229  0.00  0.00    +0.126 A 
ATOM      5  C   LIG    1      -19.096  81.114  13.289  0.00  0.00    +0.063 A 
ATOM      6  C   LIG    1      -18.355  81.827  12.437  0.00  0.00    +0.118 A 
ATOM      7  N   LIG    1      -18.451  83.205  12.420  0.00  0.00    -0.221 N 
ATOM      8  N   LIG    1      -17.772  84.048  11.610  0.00  0.00    -0.173 NA
ATOM      9  C   LIG    1      -18.245  85.249  11.926  0.00  0.00    +0.150 A 
ENDROOT
BRANCH   4  10
ATOM     10  N   LIG    1      -20.761  81.146  15.145  0.00  0.00    -0.308 N 
ATOM     11  C   LIG    1      -21.431  79.877  14.799  0.00  0.00    +0.108 C 
ATOM     12  C   LIG    1      -22.787  80.007  15.515  0.00  0.00    +0.029 C 
ATOM     13  C   LIG    1      -22.465  80.789  16.779  0.00  0.00    +0.021 C 
ATOM     14  C   LIG    1      -21.396  81.769  16.315  0.00  0.00    +0.107 C 
BRANCH  11  15
ATOM     15  C   LIG    1      -20.627  78.665  15.256  0.00  0.00    +0.011 A 
ATOM     16  C   LIG    1      -21.033  77.369  14.899  0.00  0.00    +0.129 A 
ATOM     17  F   LIG    1      -22.103  77.198  14.110  0.00  0.00    -0.205 F 
ATOM     18  C   LIG    1      -20.348  76.230  15.341  0.00  0.00    +0.041 A 
ATOM     19  C   LIG    1      -19.218  76.367  16.144  0.00  0.00    +0.041 A 
ATOM     20  C   LIG    1      -18.792  77.642  16.489  0.00  0.00    +0.124 A 
ATOM     21  F   LIG    1      -17.698  77.790  17.249  0.00  0.00    -0.205 F 
ATOM     22  C   LIG    1      -19.481  78.776  16.062  0.00  0.00    +0.046 A 
ENDBRANCH  11  15
ENDBRANCH   4  10
BRANCH   1  25
ATOM     23  N   LIG    1      -21.068  86.742  12.927  0.00  0.00    -0.304 N 
ATOM     24  H   LIG    1      -21.337  86.232  12.089  0.00  0.00    +0.150 HD
ATOM     25  C   LIG    1      -19.877  86.384  13.494  0.00  0.00    +0.250 C 
ATOM     26  O   LIG    1      -19.375  87.012  14.440  0.00  0.00    -0.270 OA
BRANCH  23  28
ATOM     27  C   LIG    1      -23.090  88.091  12.444  0.00  0.00    +0.034 C 
ATOM     28  C   LIG    1      -21.862  87.913  13.355  0.00  0.00    +0.057 C 
ATOM     29  C   LIG    1      -20.986  89.171  13.215  0.00  0.00    +0.034 C 
BRANCH  28  30
ATOM     30  C   LIG    1      -22.319  87.813  14.827  0.00  0.00    +0.238 C 
ATOM     31  F   LIG    1      -23.076  88.901  15.148  0.00  0.00    -0.247 F 
ENDBRANCH  28  30
ENDBRANCH  23  28
ENDBRANCH   1  25
TORSDOF 5
ENDMDL
MODEL 8
REMARK VINA RESULT:      -5.5     14.275     19.711
REMARK  Name = pdb/CHEMBL3675918.pdb
REMARK                            x       y       z     vdW  Elec       q    Type
REMARK                         _______ _______ _______ _____ _____    ______ ____
ROOT
ATOM      1  C   LIG    1      -37.654  75.995  25.757  0.00  0.00    +0.100 A 
ATOM      2  C   LIG    1      -38.181  74.813  25.271  0.00  0.00    +0.170 A 
ATOM      3  N   LIG    1      -37.805  73.493  25.393  0.00  0.00    -0.212 NA
ATOM      4  C   LIG    1      -38.557  72.572  24.824  0.00  0.00    +0.126 A 
ATOM      5  C   LIG    1      -39.819  72.930  24.066  0.00  0.00    +0.063 A 
ATOM      6  C   LIG    1      -40.128  74.225  23.961  0.00  0.00    +0.118 A 
ATOM      7  N   LIG    1      -39.322  75.180  24.547  0.00  0.00    -0.221 N 
ATOM      8  N   LIG    1      -39.517  76.518  24.529  0.00  0.00    -0.173 NA
ATOM      9  C   LIG    1      -38.523  76.998  25.269  0.00  0.00    +0.150 A 
ENDROOT
BRANCH   4  10
ATOM     10  N   LIG    1      -38.204  71.229  24.911  0.00  0.00    -0.308 N 
ATOM     11  C   LIG    1      -39.194  70.136  24.834  0.00  0.00    +0.108 C 
ATOM     12  C   LIG    1      -38.701  69.159  25.916  0.00  0.00    +0.029 C 
ATOM     13  C   LIG    1      -37.188  69.296  25.878  0.00  0.00    +0.021 C 
ATOM     14  C   LIG    1      -36.983  70.778  25.594  0.00  0.00    +0.107 C 
BRANCH  11  15
ATOM     15  C   LIG    1      -39.247  69.512  23.444  0.00  0.00    +0.011 A 
ATOM     16  C   LIG    1      -40.407  68.854  23.005  0.00  0.00    +0.129 A 
ATOM     17  F   LIG    1      -41.493  68.819  23.791  0.00  0.00    -0.205 F 
ATOM     18  C   LIG    1      -40.475  68.227  21.754  0.00  0.00    +0.041 A 
ATOM     19  C   LIG    1      -39.376  68.262  20.900  0.00  0.00    +0.041 A 
ATOM     20  C   LIG    1      -38.228  68.925  21.311  0.00  0.00    +0.124 A 
ATOM     21  F   LIG    1      -37.168  68.978  20.493  0.00  0.00    -0.205 F 
ATOM     22  C   LIG    1      -38.154  69.537  22.561  0.00  0.00    +0.046 A 
ENDBRANCH  11  15
ENDBRANCH   4  10
BRANCH   1  25
ATOM     23  N   LIG    1      -35.797  75.165  27.037  0.00  0.00    -0.304 N 
ATOM     24  H   LIG    1      -36.222  74.257  26.868  0.00  0.00    +0.150 HD
ATOM     25  C   LIG    1      -36.490  76.250  26.580  0.00  0.00    +0.250 C 
ATOM     26  O   LIG    1      -36.146  77.415  26.835  0.00  0.00    -0.270 OA
BRANCH  23  28
ATOM     27  C   LIG    1      -33.969  73.868  28.095  0.00  0.00    +0.034 C 
ATOM     28  C   LIG    1      -34.596  75.260  27.893  0.00  0.00    +0.057 C 
ATOM     29  C   LIG    1      -35.024  75.787  29.275  0.00  0.00    +0.034 C 
BRANCH  28  30
ATOM     30  C   LIG    1      -33.536  76.228  27.323  0.00  0.00    +0.238 C 
ATOM     31  F   LIG    1      -33.143  77.104  28.292  0.00  0.00    -0.247 F 
ENDBRANCH  28  30
ENDBRANCH  23  28
ENDBRANCH   1  25
TORSDOF 5
ENDMDL
MODEL 9
REMARK VINA RESULT:      -5.3     13.822     16.447
REMARK  Name = pdb/CHEMBL3675918.pdb
REMARK                            x       y       z     vdW  Elec       q    Type
REMARK                         _______ _______ _______ _____ _____    ______ ____
ROOT
ATOM      1  C   LIG    1      -31.889  93.238  29.245  0.00  0.00    +0.100 A 
ATOM      2  C   LIG    1      -32.295  91.929  29.069  0.00  0.00    +0.170 A 
ATOM      3  N   LIG    1      -32.067  90.768  29.776  0.00  0.00    -0.212 NA
ATOM      4  C   LIG    1      -32.641  89.657  29.358  0.00  0.00    +0.126 A 
ATOM      5  C   LIG    1      -33.548  89.636  28.145  0.00  0.00    +0.063 A 
ATOM      6  C   LIG    1      -33.720  90.783  27.484  0.00  0.00    +0.118 A 
ATOM      7  N   LIG    1      -33.100  91.937  27.923  0.00  0.00    -0.221 N 
ATOM      8  N   LIG    1      -33.191  93.162  27.361  0.00  0.00    -0.173 NA
ATOM      9  C   LIG    1      -32.477  93.941  28.167  0.00  0.00    +0.150 A 
ENDROOT
BRANCH   4  10
ATOM     10  N   LIG    1      -32.425  88.461  30.036  0.00  0.00    -0.308 N 
ATOM     11  C   LIG    1      -31.074  87.947  30.338  0.00  0.00    +0.108 C 
ATOM     12  C   LIG    1      -31.218  86.440  30.058  0.00  0.00    +0.029 C 
ATOM     13  C   LIG    1      -32.648  86.123  30.465  0.00  0.00    +0.021 C 
ATOM     14  C   LIG    1      -33.411  87.372  30.045  0.00  0.00    +0.107 C 
BRANCH  11  15
ATOM     15  C   LIG    1      -30.656  88.251  31.773  0.00  0.00    +0.011 A 
ATOM     16  C   LIG    1      -29.311  88.132  32.159  0.00  0.00    +0.129 A 
ATOM     17  F   LIG    1      -28.382  87.799  31.252  0.00  0.00    -0.205 F 
ATOM     18  C   LIG    1      -28.897  88.356  33.479  0.00  0.00    +0.041 A 
ATOM     19  C   LIG    1      -29.830  88.725  34.445  0.00  0.00    +0.041 A 
ATOM     20  C   LIG    1      -31.160  88.866  34.075  0.00  0.00    +0.124 A 
ATOM     21  F   LIG    1      -32.065  89.235  34.991  0.00  0.00    -0.205 F 
ATOM     22  C   LIG    1      -31.575  88.630  32.765  0.00  0.00    +0.046 A 
ENDBRANCH  11  15
ENDBRANCH   4  10
BRANCH   1  25
ATOM     23  N   LIG    1      -30.321  93.011  31.052  0.00  0.00    -0.304 N 
ATOM     24  H   LIG    1      -30.507  92.016  30.948  0.00  0.00    +0.150 HD
ATOM     25  C   LIG    1      -31.057  93.848  30.262  0.00  0.00    +0.250 C 
ATOM     26  O   LIG    1      -31.020  95.083  30.384  0.00  0.00    -0.270 OA
BRANCH  23  28
ATOM     27  C   LIG    1      -28.712  92.284  32.792  0.00  0.00    +0.034 C 
ATOM     28  C   LIG    1      -29.433  93.477  32.138  0.00  0.00    +0.057 C 
ATOM     29  C   LIG    1      -30.297  94.153  33.217  0.00  0.00    +0.034 C 
BRANCH  28  30
ATOM     30  C   LIG    1      -28.390  94.508  31.649  0.00  0.00    +0.238 C 
ATOM     31  F   LIG    1      -27.843  94.086  30.473  0.00  0.00    -0.247 F 
ENDBRANCH  28  30
ENDBRANCH  23  28
ENDBRANCH   1  25
TORSDOF 5
ENDMDL
