MODEL 1
REMARK VINA RESULT:      -6.8      0.000      0.000
REMARK  Name = pdb/CHEMBL3931190.pdb
REMARK                            x       y       z     vdW  Elec       q    Type
REMARK                         _______ _______ _______ _____ _____    ______ ____
ROOT
ATOM      1  C   LIG    1      -39.377  72.577  24.246  0.00  0.00    +0.149 A 
ATOM      2  N   LIG    1      -40.152  73.614  23.893  0.00  0.00    -0.160 NA
ATOM      3  N   LIG    1      -39.492  74.724  24.351  0.00  0.00    -0.218 N 
ATOM      4  C   LIG    1      -38.318  74.372  25.029  0.00  0.00    +0.129 A 
ATOM      5  C   LIG    1      -38.289  73.001  25.024  0.00  0.00    +0.078 A 
ENDROOT
BRANCH   3   6
ATOM      6  C   LIG    1      -40.050  76.010  24.098  0.00  0.00    +0.067 A 
ATOM      7  C   LIG    1      -39.255  77.133  23.848  0.00  0.00    +0.028 A 
ATOM      8  C   LIG    1      -39.851  78.385  23.647  0.00  0.00    +0.002 A 
ATOM      9  C   LIG    1      -41.238  78.519  23.684  0.00  0.00    +0.000 A 
ATOM     10  C   LIG    1      -42.036  77.398  23.891  0.00  0.00    +0.002 A 
ATOM     11  C   LIG    1      -41.448  76.147  24.084  0.00  0.00    +0.028 A 
ENDBRANCH   3   6
BRANCH   4  12
ATOM     12  N   LIG    1      -37.386  75.206  25.687  0.00  0.00    -0.266 N 
ATOM     13  H   LIG    1      -36.487  75.363  25.271  0.00  0.00    +0.157 HD
ATOM     14  C   LIG    1      -37.698  75.794  26.970  0.00  0.00    +0.251 C 
ATOM     15  O   LIG    1      -38.736  75.514  27.546  0.00  0.00    -0.270 OA
BRANCH  14  16
ATOM     16  C   LIG    1      -36.773  76.740  27.616  0.00  0.00    +0.056 A 
ATOM     17  C   LIG    1      -36.894  78.126  27.555  0.00  0.00    +0.056 A 
ATOM     18 CL   LIG    1      -38.218  78.938  26.811  0.00  0.00    -0.083 Cl
ATOM     19  C   LIG    1      -35.876  78.924  28.073  0.00  0.00    +0.059 A 
ATOM     20  C   LIG    1      -34.744  78.340  28.643  0.00  0.00    +0.134 A 
ATOM     21  F   LIG    1      -33.769  79.173  29.033  0.00  0.00    -0.205 F 
ATOM     22  C   LIG    1      -34.594  76.954  28.760  0.00  0.00    +0.039 A 
ATOM     23  C   LIG    1      -35.638  76.168  28.222  0.00  0.00    +0.027 A 
BRANCH  22  24
ATOM     24  C   LIG    1      -33.406  76.308  29.357  0.00  0.00    +0.109 A 
ATOM     25  C   LIG    1      -32.123  76.375  28.812  0.00  0.00    +0.149 A 
ATOM     26  F   LIG    1      -31.857  77.097  27.716  0.00  0.00    -0.203 F 
ATOM     27  C   LIG    1      -31.068  75.722  29.439  0.00  0.00    +0.042 A 
ATOM     28  C   LIG    1      -31.303  75.028  30.618  0.00  0.00    +0.023 A 
ATOM     29  C   LIG    1      -32.591  75.020  31.122  0.00  0.00    +0.111 A 
ATOM     30  N   LIG    1      -33.638  75.641  30.525  0.00  0.00    -0.252 NA
ENDBRANCH  22  24
ENDBRANCH  14  16
ENDBRANCH   4  12
BRANCH   1  32
ATOM     31  N   LIG    1      -38.777  70.301  23.865  0.00  0.00    -0.246 NA
ATOM     32  C   LIG    1      -39.680  71.212  23.822  0.00  0.00    +0.236 C 
BRANCH  31  36
ATOM     33  C   LIG    1      -36.338  67.932  22.846  0.00  0.00    +0.115 C 
ATOM     34  C   LIG    1      -36.944  67.941  24.251  0.00  0.00    +0.033 C 
ATOM     35  C   LIG    1      -38.470  67.876  24.228  0.00  0.00    +0.029 C 
ATOM     36  C   LIG    1      -39.091  68.963  23.344  0.00  0.00    +0.109 C 
ATOM     37  C   LIG    1      -38.503  68.853  21.926  0.00  0.00    +0.029 C 
ATOM     38  C   LIG    1      -36.979  68.969  21.925  0.00  0.00    +0.033 C 
BRANCH  33  39
ATOM     39  O   LIG    1      -34.937  68.172  22.933  0.00  0.00    -0.392 OA
ATOM     40  H   LIG    1      -34.782  68.728  23.716  0.00  0.00    +0.210 HD
ENDBRANCH  33  39
ENDBRANCH  31  36
BRANCH  32  41
ATOM     41  O   LIG    1      -40.939  71.029  23.368  0.00  0.00    -0.491 OA
ATOM     42  H   LIG    1      -41.563  71.249  24.088  0.00  0.00    +0.294 HD
ENDBRANCH  32  41
ENDBRANCH   1  32
TORSDOF 8
ENDMDL
MODEL 2
REMARK VINA RESULT:      -6.7      4.344      9.850
REMARK  Name = pdb/CHEMBL3931190.pdb
REMARK                            x       y       z     vdW  Elec       q    Type
REMARK                         _______ _______ _______ _____ _____    ______ ____
ROOT
ATOM      1  C   LIG    1      -37.414  79.742  27.612  0.00  0.00    +0.149 A 
ATOM      2  N   LIG    1      -36.254  79.156  27.950  0.00  0.00    -0.160 NA
ATOM      3  N   LIG    1      -36.396  77.845  27.580  0.00  0.00    -0.218 N 
ATOM      4  C   LIG    1      -37.667  77.604  27.044  0.00  0.00    +0.129 A 
ATOM      5  C   LIG    1      -38.336  78.797  27.137  0.00  0.00    +0.078 A 
ENDROOT
BRANCH   3   6
ATOM      6  C   LIG    1      -35.303  76.952  27.776  0.00  0.00    +0.067 A 
ATOM      7  C   LIG    1      -35.489  75.603  28.096  0.00  0.00    +0.028 A 
ATOM      8  C   LIG    1      -34.381  74.777  28.322  0.00  0.00    +0.002 A 
ATOM      9  C   LIG    1      -33.088  75.288  28.219  0.00  0.00    +0.000 A 
ATOM     10  C   LIG    1      -32.896  76.618  27.860  0.00  0.00    +0.002 A 
ATOM     11  C   LIG    1      -33.996  77.445  27.626  0.00  0.00    +0.028 A 
ENDBRANCH   3   6
BRANCH   4  12
ATOM     12  N   LIG    1      -38.226  76.388  26.590  0.00  0.00    -0.266 N 
ATOM     13  H   LIG    1      -38.803  75.850  27.210  0.00  0.00    +0.157 HD
ATOM     14  C   LIG    1      -37.938  75.893  25.263  0.00  0.00    +0.251 C 
ATOM     15  O   LIG    1      -37.142  76.471  24.544  0.00  0.00    -0.270 OA
BRANCH  14  16
ATOM     16  C   LIG    1      -38.591  74.678  24.748  0.00  0.00    +0.056 A 
ATOM     17  C   LIG    1      -39.840  74.656  24.130  0.00  0.00    +0.056 A 
ATOM     18 CL   LIG    1      -40.752  76.071  23.770  0.00  0.00    -0.083 Cl
ATOM     19  C   LIG    1      -40.428  73.431  23.822  0.00  0.00    +0.059 A 
ATOM     20  C   LIG    1      -39.775  72.237  24.134  0.00  0.00    +0.134 A 
ATOM     21  F   LIG    1      -40.447  71.104  23.890  0.00  0.00    -0.205 F 
ATOM     22  C   LIG    1      -38.506  72.209  24.721  0.00  0.00    +0.039 A 
ATOM     23  C   LIG    1      -37.934  73.464  25.027  0.00  0.00    +0.027 A 
BRANCH  22  24
ATOM     24  C   LIG    1      -37.791  70.961  25.062  0.00  0.00    +0.109 A 
ATOM     25  C   LIG    1      -37.385  70.011  24.123  0.00  0.00    +0.149 A 
ATOM     26  F   LIG    1      -37.564  70.195  22.809  0.00  0.00    -0.203 F 
ATOM     27  C   LIG    1      -36.730  68.859  24.541  0.00  0.00    +0.042 A 
ATOM     28  C   LIG    1      -36.466  68.679  25.891  0.00  0.00    +0.023 A 
ATOM     29  C   LIG    1      -36.869  69.668  26.770  0.00  0.00    +0.111 A 
ATOM     30  N   LIG    1      -37.519  70.796  26.389  0.00  0.00    -0.252 NA
ENDBRANCH  22  24
ENDBRANCH  14  16
ENDBRANCH   4  12
BRANCH   1  32
ATOM     31  N   LIG    1      -38.110  81.858  26.763  0.00  0.00    -0.246 NA
ATOM     32  C   LIG    1      -37.611  81.184  27.735  0.00  0.00    +0.236 C 
BRANCH  31  36
ATOM     33  C   LIG    1      -38.374  84.082  24.009  0.00  0.00    +0.115 C 
ATOM     34  C   LIG    1      -39.595  83.557  24.767  0.00  0.00    +0.033 C 
ATOM     35  C   LIG    1      -39.511  83.832  26.268  0.00  0.00    +0.029 C 
ATOM     36  C   LIG    1      -38.206  83.319  26.886  0.00  0.00    +0.109 C 
ATOM     37  C   LIG    1      -37.017  83.942  26.135  0.00  0.00    +0.029 C 
ATOM     38  C   LIG    1      -37.057  83.633  24.639  0.00  0.00    +0.033 C 
BRANCH  33  39
ATOM     39  O   LIG    1      -38.432  83.641  22.656  0.00  0.00    -0.392 OA
ATOM     40  H   LIG    1      -39.358  83.419  22.458  0.00  0.00    +0.210 HD
ENDBRANCH  33  39
ENDBRANCH  31  36
BRANCH  32  41
ATOM     41  O   LIG    1      -37.198  81.712  28.907  0.00  0.00    -0.491 OA
ATOM     42  H   LIG    1      -37.329  81.046  29.610  0.00  0.00    +0.294 HD
ENDBRANCH  32  41
ENDBRANCH   1  32
TORSDOF 8
ENDMDL
MODEL 3
REMARK VINA RESULT:      -6.7      4.063      9.979
REMARK  Name = pdb/CHEMBL3931190.pdb
REMARK                            x       y       z     vdW  Elec       q    Type
REMARK                         _______ _______ _______ _____ _____    ______ ____
ROOT
ATOM      1  C   LIG    1      -31.821  74.417  30.088  0.00  0.00    +0.149 A 
ATOM      2  N   LIG    1      -31.772  75.720  29.772  0.00  0.00    -0.160 NA
ATOM      3  N   LIG    1      -32.749  75.895  28.828  0.00  0.00    -0.218 N 
ATOM      4  C   LIG    1      -33.384  74.684  28.526  0.00  0.00    +0.129 A 
ATOM      5  C   LIG    1      -32.738  73.735  29.274  0.00  0.00    +0.078 A 
ENDROOT
BRANCH   3   6
ATOM      6  C   LIG    1      -32.978  77.202  28.308  0.00  0.00    +0.067 A 
ATOM      7  C   LIG    1      -32.291  77.694  27.193  0.00  0.00    +0.028 A 
ATOM      8  C   LIG    1      -32.522  79.001  26.747  0.00  0.00    +0.002 A 
ATOM      9  C   LIG    1      -33.443  79.817  27.402  0.00  0.00    +0.000 A 
ATOM     10  C   LIG    1      -34.159  79.320  28.487  0.00  0.00    +0.002 A 
ATOM     11  C   LIG    1      -33.940  78.015  28.931  0.00  0.00    +0.028 A 
ENDBRANCH   3   6
BRANCH   4  12
ATOM     12  N   LIG    1      -34.403  74.425  27.581  0.00  0.00    -0.266 N 
ATOM     13  H   LIG    1      -34.152  74.188  26.639  0.00  0.00    +0.157 HD
ATOM     14  C   LIG    1      -35.796  74.543  27.947  0.00  0.00    +0.251 C 
ATOM     15  O   LIG    1      -36.116  74.949  29.051  0.00  0.00    -0.270 OA
BRANCH  14  16
ATOM     16  C   LIG    1      -36.863  74.182  26.999  0.00  0.00    +0.056 A 
ATOM     17  C   LIG    1      -37.090  72.893  26.521  0.00  0.00    +0.056 A 
ATOM     18 CL   LIG    1      -36.227  71.507  27.066  0.00  0.00    -0.083 Cl
ATOM     19  C   LIG    1      -38.027  72.695  25.510  0.00  0.00    +0.059 A 
ATOM     20  C   LIG    1      -38.729  73.778  24.977  0.00  0.00    +0.134 A 
ATOM     21  F   LIG    1      -39.543  73.517  23.945  0.00  0.00    -0.205 F 
ATOM     22  C   LIG    1      -38.562  75.084  25.448  0.00  0.00    +0.039 A 
ATOM     23  C   LIG    1      -37.602  75.258  26.470  0.00  0.00    +0.027 A 
BRANCH  22  24
ATOM     24  C   LIG    1      -39.290  76.249  24.902  0.00  0.00    +0.109 A 
ATOM     25  C   LIG    1      -38.721  77.195  24.047  0.00  0.00    +0.149 A 
ATOM     26  F   LIG    1      -37.463  77.079  23.601  0.00  0.00    -0.203 F 
ATOM     27  C   LIG    1      -39.481  78.267  23.596  0.00  0.00    +0.042 A 
ATOM     28  C   LIG    1      -40.809  78.370  23.984  0.00  0.00    +0.023 A 
ATOM     29  C   LIG    1      -41.323  77.387  24.811  0.00  0.00    +0.111 A 
ATOM     30  N   LIG    1      -40.600  76.337  25.274  0.00  0.00    -0.252 NA
ENDBRANCH  22  24
ENDBRANCH  14  16
ENDBRANCH   4  12
BRANCH   1  32
ATOM     31  N   LIG    1      -30.190  74.599  31.818  0.00  0.00    -0.246 NA
ATOM     32  C   LIG    1      -31.007  73.856  31.164  0.00  0.00    +0.236 C 
BRANCH  31  36
ATOM     33  C   LIG    1      -27.346  76.178  33.238  0.00  0.00    +0.115 C 
ATOM     34  C   LIG    1      -28.726  76.214  33.898  0.00  0.00    +0.033 C 
ATOM     35  C   LIG    1      -29.305  74.817  34.114  0.00  0.00    +0.029 C 
ATOM     36  C   LIG    1      -29.321  73.982  32.830  0.00  0.00    +0.109 C 
ATOM     37  C   LIG    1      -27.895  73.916  32.257  0.00  0.00    +0.029 C 
ATOM     38  C   LIG    1      -27.319  75.305  31.985  0.00  0.00    +0.033 C 
BRANCH  33  39
ATOM     39  O   LIG    1      -26.945  77.504  32.905  0.00  0.00    -0.392 OA
ATOM     40  H   LIG    1      -26.048  77.455  32.533  0.00  0.00    +0.210 HD
ENDBRANCH  33  39
ENDBRANCH  31  36
BRANCH  32  41
ATOM     41  O   LIG    1      -31.172  72.530  31.363  0.00  0.00    -0.491 OA
ATOM     42  H   LIG    1      -30.690  72.049  30.662  0.00  0.00    +0.294 HD
ENDBRANCH  32  41
ENDBRANCH   1  32
TORSDOF 8
ENDMDL
MODEL 4
REMARK VINA RESULT:      -6.7      4.180      9.931
REMARK  Name = pdb/CHEMBL3931190.pdb
REMARK                            x       y       z     vdW  Elec       q    Type
REMARK                         _______ _______ _______ _____ _____    ______ ____
ROOT
ATOM      1  C   LIG    1      -35.641  74.268  28.300  0.00  0.00    +0.149 A 
ATOM      2  N   LIG    1      -35.211  73.010  28.111  0.00  0.00    -0.160 NA
ATOM      3  N   LIG    1      -36.128  72.444  27.265  0.00  0.00    -0.218 N 
ATOM      4  C   LIG    1      -37.157  73.344  26.957  0.00  0.00    +0.129 A 
ATOM      5  C   LIG    1      -36.881  74.476  27.679  0.00  0.00    +0.078 A 
ENDROOT
BRANCH   3   6
ATOM      6  C   LIG    1      -35.931  71.100  26.835  0.00  0.00    +0.067 A 
ATOM      7  C   LIG    1      -34.824  70.713  26.073  0.00  0.00    +0.028 A 
ATOM      8  C   LIG    1      -34.699  69.388  25.639  0.00  0.00    +0.002 A 
ATOM      9  C   LIG    1      -35.669  68.443  25.972  0.00  0.00    +0.000 A 
ATOM     10  C   LIG    1      -36.751  68.811  26.765  0.00  0.00    +0.002 A 
ATOM     11  C   LIG    1      -36.877  70.130  27.207  0.00  0.00    +0.028 A 
ENDBRANCH   3   6
BRANCH   4  12
ATOM     12  N   LIG    1      -38.309  73.140  26.165  0.00  0.00    -0.266 N 
ATOM     13  H   LIG    1      -38.955  72.414  26.413  0.00  0.00    +0.157 HD
ATOM     14  C   LIG    1      -38.540  73.936  24.980  0.00  0.00    +0.251 C 
ATOM     15  O   LIG    1      -37.705  74.737  24.597  0.00  0.00    -0.270 OA
BRANCH  14  16
ATOM     16  C   LIG    1      -39.784  73.797  24.204  0.00  0.00    +0.056 A 
ATOM     17  C   LIG    1      -40.674  74.838  23.949  0.00  0.00    +0.056 A 
ATOM     18 CL   LIG    1      -40.388  76.473  24.405  0.00  0.00    -0.083 Cl
ATOM     19  C   LIG    1      -41.894  74.558  23.336  0.00  0.00    +0.059 A 
ATOM     20  C   LIG    1      -42.223  73.248  22.986  0.00  0.00    +0.134 A 
ATOM     21  F   LIG    1      -43.451  73.049  22.487  0.00  0.00    -0.205 F 
ATOM     22  C   LIG    1      -41.348  72.176  23.189  0.00  0.00    +0.039 A 
ATOM     23  C   LIG    1      -40.120  72.486  23.816  0.00  0.00    +0.027 A 
BRANCH  22  24
ATOM     24  C   LIG    1      -41.670  70.778  22.829  0.00  0.00    +0.109 A 
ATOM     25  C   LIG    1      -41.913  70.344  21.525  0.00  0.00    +0.149 A 
ATOM     26  F   LIG    1      -41.810  71.168  20.474  0.00  0.00    -0.203 F 
ATOM     27  C   LIG    1      -42.222  69.011  21.285  0.00  0.00    +0.042 A 
ATOM     28  C   LIG    1      -42.261  68.119  22.348  0.00  0.00    +0.023 A 
ATOM     29  C   LIG    1      -41.985  68.605  23.614  0.00  0.00    +0.111 A 
ATOM     30  N   LIG    1      -41.690  69.903  23.876  0.00  0.00    -0.252 NA
ENDBRANCH  22  24
ENDBRANCH  14  16
ENDBRANCH   4  12
BRANCH   1  32
ATOM     31  N   LIG    1      -34.532  76.366  28.524  0.00  0.00    -0.246 NA
ATOM     32  C   LIG    1      -34.855  75.242  29.053  0.00  0.00    +0.236 C 
BRANCH  31  36
ATOM     33  C   LIG    1      -32.435  78.808  27.027  0.00  0.00    +0.115 C 
ATOM     34  C   LIG    1      -33.845  79.126  27.530  0.00  0.00    +0.033 C 
ATOM     35  C   LIG    1      -34.041  78.741  28.995  0.00  0.00    +0.029 C 
ATOM     36  C   LIG    1      -33.663  77.283  29.275  0.00  0.00    +0.109 C 
ATOM     37  C   LIG    1      -32.213  77.045  28.822  0.00  0.00    +0.029 C 
ATOM     38  C   LIG    1      -32.010  77.375  27.344  0.00  0.00    +0.033 C 
BRANCH  33  39
ATOM     39  O   LIG    1      -32.374  79.024  25.621  0.00  0.00    -0.392 OA
ATOM     40  H   LIG    1      -32.771  79.894  25.440  0.00  0.00    +0.210 HD
ENDBRANCH  33  39
ENDBRANCH  31  36
BRANCH  32  41
ATOM     41  O   LIG    1      -34.492  74.840  30.290  0.00  0.00    -0.491 OA
ATOM     42  H   LIG    1      -34.315  73.880  30.264  0.00  0.00    +0.294 HD
ENDBRANCH  32  41
ENDBRANCH   1  32
TORSDOF 8
ENDMDL
MODEL 5
REMARK VINA RESULT:      -6.6      3.265      4.549
REMARK  Name = pdb/CHEMBL3931190.pdb
REMARK                            x       y       z     vdW  Elec       q    Type
REMARK                         _______ _______ _______ _____ _____    ______ ____
ROOT
ATOM      1  C   LIG    1      -36.721  69.484  25.414  0.00  0.00    +0.149 A 
ATOM      2  N   LIG    1      -37.629  70.467  25.522  0.00  0.00    -0.160 NA
ATOM      3  N   LIG    1      -36.920  71.565  25.932  0.00  0.00    -0.218 N 
ATOM      4  C   LIG    1      -35.567  71.253  26.120  0.00  0.00    +0.129 A 
ATOM      5  C   LIG    1      -35.461  69.911  25.862  0.00  0.00    +0.078 A 
ENDROOT
BRANCH   3   6
ATOM      6  C   LIG    1      -37.605  72.802  26.105  0.00  0.00    +0.067 A 
ATOM      7  C   LIG    1      -37.993  73.272  27.364  0.00  0.00    +0.028 A 
ATOM      8  C   LIG    1      -38.702  74.474  27.477  0.00  0.00    +0.002 A 
ATOM      9  C   LIG    1      -39.017  75.215  26.340  0.00  0.00    +0.000 A 
ATOM     10  C   LIG    1      -38.599  74.775  25.088  0.00  0.00    +0.002 A 
ATOM     11  C   LIG    1      -37.884  73.581  24.970  0.00  0.00    +0.028 A 
ENDBRANCH   3   6
BRANCH   4  12
ATOM     12  N   LIG    1      -34.518  72.082  26.578  0.00  0.00    -0.266 N 
ATOM     13  H   LIG    1      -33.817  72.391  25.931  0.00  0.00    +0.157 HD
ATOM     14  C   LIG    1      -34.422  72.447  27.974  0.00  0.00    +0.251 C 
ATOM     15  O   LIG    1      -35.194  71.979  28.793  0.00  0.00    -0.270 OA
BRANCH  14  16
ATOM     16  C   LIG    1      -33.390  73.387  28.442  0.00  0.00    +0.056 A 
ATOM     17  C   LIG    1      -32.342  73.046  29.294  0.00  0.00    +0.056 A 
ATOM     18 CL   LIG    1      -32.031  71.440  29.831  0.00  0.00    -0.083 Cl
ATOM     19  C   LIG    1      -31.515  74.049  29.795  0.00  0.00    +0.059 A 
ATOM     20  C   LIG    1      -31.737  75.384  29.450  0.00  0.00    +0.134 A 
ATOM     21  F   LIG    1      -30.957  76.296  30.046  0.00  0.00    -0.205 F 
ATOM     22  C   LIG    1      -32.753  75.771  28.570  0.00  0.00    +0.039 A 
ATOM     23  C   LIG    1      -33.580  74.734  28.081  0.00  0.00    +0.027 A 
BRANCH  22  24
ATOM     24  C   LIG    1      -33.012  77.175  28.188  0.00  0.00    +0.109 A 
ATOM     25  C   LIG    1      -32.377  77.826  27.129  0.00  0.00    +0.149 A 
ATOM     26  F   LIG    1      -31.511  77.193  26.327  0.00  0.00    -0.203 F 
ATOM     27  C   LIG    1      -32.676  79.155  26.853  0.00  0.00    +0.042 A 
ATOM     28  C   LIG    1      -33.625  79.812  27.622  0.00  0.00    +0.023 A 
ATOM     29  C   LIG    1      -34.240  79.105  28.640  0.00  0.00    +0.111 A 
ATOM     30  N   LIG    1      -33.959  77.812  28.936  0.00  0.00    -0.252 NA
ENDBRANCH  22  24
ENDBRANCH  14  16
ENDBRANCH   4  12
BRANCH   1  32
ATOM     31  N   LIG    1      -36.993  67.945  23.615  0.00  0.00    -0.246 NA
ATOM     32  C   LIG    1      -37.069  68.172  24.876  0.00  0.00    +0.236 C 
BRANCH  31  36
ATOM     33  C   LIG    1      -37.911  67.344  20.239  0.00  0.00    +0.115 C 
ATOM     34  C   LIG    1      -36.502  67.075  20.772  0.00  0.00    +0.033 C 
ATOM     35  C   LIG    1      -36.506  66.150  21.988  0.00  0.00    +0.029 C 
ATOM     36  C   LIG    1      -37.439  66.643  23.098  0.00  0.00    +0.109 C 
ATOM     37  C   LIG    1      -38.855  66.818  22.523  0.00  0.00    +0.029 C 
ATOM     38  C   LIG    1      -38.879  67.783  21.337  0.00  0.00    +0.033 C 
BRANCH  33  39
ATOM     39  O   LIG    1      -37.852  68.345  19.227  0.00  0.00    -0.392 OA
ATOM     40  H   LIG    1      -37.396  67.959  18.459  0.00  0.00    +0.210 HD
ENDBRANCH  33  39
ENDBRANCH  31  36
BRANCH  32  41
ATOM     41  O   LIG    1      -37.492  67.279  25.796  0.00  0.00    -0.491 OA
ATOM     42  H   LIG    1      -38.366  67.565  26.126  0.00  0.00    +0.294 HD
ENDBRANCH  32  41
ENDBRANCH   1  32
TORSDOF 8
ENDMDL
MODEL 6
REMARK VINA RESULT:      -6.6      4.244      9.595
REMARK  Name = pdb/CHEMBL3931190.pdb
REMARK                            x       y       z     vdW  Elec       q    Type
REMARK                         _______ _______ _______ _____ _____    ______ ____
ROOT
ATOM      1  C   LIG    1      -38.098  78.521  26.611  0.00  0.00    +0.149 A 
ATOM      2  N   LIG    1      -37.004  78.170  27.306  0.00  0.00    -0.160 NA
ATOM      3  N   LIG    1      -36.678  76.920  26.851  0.00  0.00    -0.218 N 
ATOM      4  C   LIG    1      -37.599  76.473  25.894  0.00  0.00    +0.129 A 
ATOM      5  C   LIG    1      -38.541  77.463  25.802  0.00  0.00    +0.078 A 
ENDROOT
BRANCH   3   6
ATOM      6  C   LIG    1      -35.521  76.276  27.376  0.00  0.00    +0.067 A 
ATOM      7  C   LIG    1      -35.578  75.019  27.987  0.00  0.00    +0.028 A 
ATOM      8  C   LIG    1      -34.418  74.448  28.526  0.00  0.00    +0.002 A 
ATOM      9  C   LIG    1      -33.200  75.120  28.449  0.00  0.00    +0.000 A 
ATOM     10  C   LIG    1      -33.129  76.353  27.806  0.00  0.00    +0.002 A 
ATOM     11  C   LIG    1      -34.280  76.923  27.260  0.00  0.00    +0.028 A 
ENDBRANCH   3   6
BRANCH   4  12
ATOM     12  N   LIG    1      -37.649  75.231  25.220  0.00  0.00    -0.266 N 
ATOM     13  H   LIG    1      -37.190  75.134  24.334  0.00  0.00    +0.157 HD
ATOM     14  C   LIG    1      -38.394  74.122  25.771  0.00  0.00    +0.251 C 
ATOM     15  O   LIG    1      -39.059  74.261  26.783  0.00  0.00    -0.270 OA
BRANCH  14  16
ATOM     16  C   LIG    1      -38.372  72.799  25.125  0.00  0.00    +0.056 A 
ATOM     17  C   LIG    1      -39.332  72.347  24.222  0.00  0.00    +0.056 A 
ATOM     18 CL   LIG    1      -40.625  73.321  23.635  0.00  0.00    -0.083 Cl
ATOM     19  C   LIG    1      -39.295  71.022  23.792  0.00  0.00    +0.059 A 
ATOM     20  C   LIG    1      -38.309  70.154  24.266  0.00  0.00    +0.134 A 
ATOM     21  F   LIG    1      -38.398  68.875  23.878  0.00  0.00    -0.205 F 
ATOM     22  C   LIG    1      -37.304  70.571  25.145  0.00  0.00    +0.039 A 
ATOM     23  C   LIG    1      -37.367  71.918  25.568  0.00  0.00    +0.027 A 
BRANCH  22  24
ATOM     24  C   LIG    1      -36.249  69.675  25.663  0.00  0.00    +0.109 A 
ATOM     25  C   LIG    1      -36.499  68.542  26.440  0.00  0.00    +0.149 A 
ATOM     26  F   LIG    1      -37.744  68.142  26.728  0.00  0.00    -0.203 F 
ATOM     27  C   LIG    1      -35.439  67.766  26.895  0.00  0.00    +0.042 A 
ATOM     28  C   LIG    1      -34.141  68.117  26.549  0.00  0.00    +0.023 A 
ATOM     29  C   LIG    1      -33.961  69.235  25.754  0.00  0.00    +0.111 A 
ATOM     30  N   LIG    1      -34.976  70.014  25.306  0.00  0.00    -0.252 NA
ENDBRANCH  22  24
ENDBRANCH  14  16
ENDBRANCH   4  12
BRANCH   1  32
ATOM     31  N   LIG    1      -37.937  80.879  26.917  0.00  0.00    -0.246 NA
ATOM     32  C   LIG    1      -38.684  79.854  26.721  0.00  0.00    +0.236 C 
BRANCH  31  36
ATOM     33  C   LIG    1      -36.429  83.972  26.046  0.00  0.00    +0.115 C 
ATOM     34  C   LIG    1      -37.389  83.230  25.114  0.00  0.00    +0.033 C 
ATOM     35  C   LIG    1      -38.729  82.925  25.781  0.00  0.00    +0.029 C 
ATOM     36  C   LIG    1      -38.567  82.192  27.117  0.00  0.00    +0.109 C 
ATOM     37  C   LIG    1      -37.659  83.023  28.039  0.00  0.00    +0.029 C 
ATOM     38  C   LIG    1      -36.293  83.293  27.408  0.00  0.00    +0.033 C 
BRANCH  33  39
ATOM     39  O   LIG    1      -35.149  84.068  25.430  0.00  0.00    -0.392 OA
ATOM     40  H   LIG    1      -35.289  84.303  24.496  0.00  0.00    +0.210 HD
ENDBRANCH  33  39
ENDBRANCH  31  36
BRANCH  32  41
ATOM     41  O   LIG    1      -40.031  79.887  26.636  0.00  0.00    -0.491 OA
ATOM     42  H   LIG    1      -40.402  79.741  27.528  0.00  0.00    +0.294 HD
ENDBRANCH  32  41
ENDBRANCH   1  32
TORSDOF 8
ENDMDL
MODEL 7
REMARK VINA RESULT:      -6.6      5.661     12.238
REMARK  Name = pdb/CHEMBL3931190.pdb
REMARK                            x       y       z     vdW  Elec       q    Type
REMARK                         _______ _______ _______ _____ _____    ______ ____
ROOT
ATOM      1  C   LIG    1      -35.266  82.051  30.032  0.00  0.00    +0.149 A 
ATOM      2  N   LIG    1      -34.317  81.117  29.861  0.00  0.00    -0.160 NA
ATOM      3  N   LIG    1      -34.739  80.371  28.793  0.00  0.00    -0.218 N 
ATOM      4  C   LIG    1      -35.980  80.818  28.321  0.00  0.00    +0.129 A 
ATOM      5  C   LIG    1      -36.345  81.838  29.161  0.00  0.00    +0.078 A 
ENDROOT
BRANCH   3   6
ATOM      6  C   LIG    1      -33.917  79.303  28.331  0.00  0.00    +0.067 A 
ATOM      7  C   LIG    1      -33.055  79.443  27.238  0.00  0.00    +0.028 A 
ATOM      8  C   LIG    1      -32.300  78.349  26.796  0.00  0.00    +0.002 A 
ATOM      9  C   LIG    1      -32.393  77.120  27.445  0.00  0.00    +0.000 A 
ATOM     10  C   LIG    1      -33.217  76.985  28.558  0.00  0.00    +0.002 A 
ATOM     11  C   LIG    1      -33.966  78.073  29.009  0.00  0.00    +0.028 A 
ENDBRANCH   3   6
BRANCH   4  12
ATOM     12  N   LIG    1      -36.775  80.297  27.276  0.00  0.00    -0.266 N 
ATOM     13  H   LIG    1      -36.831  80.793  26.406  0.00  0.00    +0.157 HD
ATOM     14  C   LIG    1      -37.541  79.085  27.465  0.00  0.00    +0.251 C 
ATOM     15  O   LIG    1      -37.581  78.540  28.554  0.00  0.00    -0.270 OA
BRANCH  14  16
ATOM     16  C   LIG    1      -38.295  78.483  26.353  0.00  0.00    +0.056 A 
ATOM     17  C   LIG    1      -37.993  77.254  25.771  0.00  0.00    +0.056 A 
ATOM     18 CL   LIG    1      -36.761  76.200  26.349  0.00  0.00    -0.083 Cl
ATOM     19  C   LIG    1      -38.678  76.855  24.625  0.00  0.00    +0.059 A 
ATOM     20  C   LIG    1      -39.654  77.681  24.063  0.00  0.00    +0.134 A 
ATOM     21  F   LIG    1      -40.200  77.268  22.911  0.00  0.00    -0.205 F 
ATOM     22  C   LIG    1      -40.017  78.906  24.631  0.00  0.00    +0.039 A 
ATOM     23  C   LIG    1      -39.304  79.289  25.790  0.00  0.00    +0.027 A 
BRANCH  22  24
ATOM     24  C   LIG    1      -41.044  79.801  24.059  0.00  0.00    +0.109 A 
ATOM     25  C   LIG    1      -40.759  81.003  23.409  0.00  0.00    +0.149 A 
ATOM     26  F   LIG    1      -39.501  81.413  23.200  0.00  0.00    -0.203 F 
ATOM     27  C   LIG    1      -41.794  81.787  22.915  0.00  0.00    +0.042 A 
ATOM     28  C   LIG    1      -43.104  81.349  23.052  0.00  0.00    +0.023 A 
ATOM     29  C   LIG    1      -43.321  80.136  23.682  0.00  0.00    +0.111 A 
ATOM     30  N   LIG    1      -42.329  79.358  24.182  0.00  0.00    -0.252 NA
ENDBRANCH  22  24
ENDBRANCH  14  16
ENDBRANCH   4  12
BRANCH   1  32
ATOM     31  N   LIG    1      -34.191  84.006  30.871  0.00  0.00    -0.246 NA
ATOM     32  C   LIG    1      -35.117  83.128  31.007  0.00  0.00    +0.236 C 
BRANCH  31  36
ATOM     33  C   LIG    1      -31.403  86.193  31.079  0.00  0.00    +0.115 C 
ATOM     34  C   LIG    1      -32.712  86.587  30.393  0.00  0.00    +0.033 C 
ATOM     35  C   LIG    1      -33.923  86.423  31.310  0.00  0.00    +0.029 C 
ATOM     36  C   LIG    1      -34.012  85.020  31.920  0.00  0.00    +0.109 C 
ATOM     37  C   LIG    1      -32.700  84.712  32.662  0.00  0.00    +0.029 C 
ATOM     38  C   LIG    1      -31.482  84.821  31.746  0.00  0.00    +0.033 C 
BRANCH  33  39
ATOM     39  O   LIG    1      -30.346  86.200  30.124  0.00  0.00    -0.392 OA
ATOM     40  H   LIG    1      -30.064  85.278  29.992  0.00  0.00    +0.210 HD
ENDBRANCH  33  39
ENDBRANCH  31  36
BRANCH  32  41
ATOM     41  O   LIG    1      -35.990  83.082  32.036  0.00  0.00    -0.491 OA
ATOM     42  H   LIG    1      -36.355  82.178  32.093  0.00  0.00    +0.294 HD
ENDBRANCH  32  41
ENDBRANCH   1  32
TORSDOF 8
ENDMDL
MODEL 8
REMARK VINA RESULT:      -6.6      2.890      4.535
REMARK  Name = pdb/CHEMBL3931190.pdb
REMARK                            x       y       z     vdW  Elec       q    Type
REMARK                         _______ _______ _______ _____ _____    ______ ____
ROOT
ATOM      1  C   LIG    1      -40.066  72.938  24.106  0.00  0.00    +0.149 A 
ATOM      2  N   LIG    1      -40.549  74.190  24.079  0.00  0.00    -0.160 NA
ATOM      3  N   LIG    1      -39.537  74.973  24.567  0.00  0.00    -0.218 N 
ATOM      4  C   LIG    1      -38.431  74.198  24.939  0.00  0.00    +0.129 A 
ATOM      5  C   LIG    1      -38.802  72.898  24.714  0.00  0.00    +0.078 A 
ENDROOT
BRANCH   3   6
ATOM      6  C   LIG    1      -39.726  76.383  24.632  0.00  0.00    +0.067 A 
ATOM      7  C   LIG    1      -39.781  77.184  23.487  0.00  0.00    +0.028 A 
ATOM      8  C   LIG    1      -39.926  78.572  23.607  0.00  0.00    +0.002 A 
ATOM      9  C   LIG    1      -40.028  79.164  24.865  0.00  0.00    +0.000 A 
ATOM     10  C   LIG    1      -40.016  78.369  26.007  0.00  0.00    +0.002 A 
ATOM     11  C   LIG    1      -39.880  76.984  25.893  0.00  0.00    +0.028 A 
ENDBRANCH   3   6
BRANCH   4  12
ATOM     12  N   LIG    1      -37.211  74.609  25.524  0.00  0.00    -0.266 N 
ATOM     13  H   LIG    1      -36.413  74.766  24.938  0.00  0.00    +0.157 HD
ATOM     14  C   LIG    1      -37.094  74.759  26.957  0.00  0.00    +0.251 C 
ATOM     15  O   LIG    1      -38.018  74.453  27.691  0.00  0.00    -0.270 OA
BRANCH  14  16
ATOM     16  C   LIG    1      -35.859  75.279  27.567  0.00  0.00    +0.056 A 
ATOM     17  C   LIG    1      -34.823  74.483  28.049  0.00  0.00    +0.056 A 
ATOM     18 CL   LIG    1      -34.783  72.769  27.894  0.00  0.00    -0.083 Cl
ATOM     19  C   LIG    1      -33.772  75.078  28.745  0.00  0.00    +0.059 A 
ATOM     20  C   LIG    1      -33.760  76.457  28.960  0.00  0.00    +0.134 A 
ATOM     21  F   LIG    1      -32.765  76.939  29.717  0.00  0.00    -0.205 F 
ATOM     22  C   LIG    1      -34.759  77.301  28.464  0.00  0.00    +0.039 A 
ATOM     23  C   LIG    1      -35.815  76.672  27.767  0.00  0.00    +0.027 A 
BRANCH  22  24
ATOM     24  C   LIG    1      -34.774  78.764  28.678  0.00  0.00    +0.109 A 
ATOM     25  C   LIG    1      -34.836  79.369  29.934  0.00  0.00    +0.149 A 
ATOM     26  F   LIG    1      -34.826  78.653  31.066  0.00  0.00    -0.203 F 
ATOM     27  C   LIG    1      -34.859  80.755  30.035  0.00  0.00    +0.042 A 
ATOM     28  C   LIG    1      -34.795  81.522  28.881  0.00  0.00    +0.023 A 
ATOM     29  C   LIG    1      -34.708  80.864  27.667  0.00  0.00    +0.111 A 
ATOM     30  N   LIG    1      -34.694  79.514  27.541  0.00  0.00    -0.252 NA
ENDBRANCH  22  24
ENDBRANCH  14  16
ENDBRANCH   4  12
BRANCH   1  32
ATOM     31  N   LIG    1      -41.914  72.014  22.916  0.00  0.00    -0.246 NA
ATOM     32  C   LIG    1      -40.811  71.815  23.541  0.00  0.00    +0.236 C 
BRANCH  31  36
ATOM     33  C   LIG    1      -44.173  72.098  20.179  0.00  0.00    +0.115 C 
ATOM     34  C   LIG    1      -42.712  71.668  20.031  0.00  0.00    +0.033 C 
ATOM     35  C   LIG    1      -42.339  70.533  20.984  0.00  0.00    +0.029 C 
ATOM     36  C   LIG    1      -42.683  70.855  22.442  0.00  0.00    +0.109 C 
ATOM     37  C   LIG    1      -44.178  71.201  22.541  0.00  0.00    +0.029 C 
ATOM     38  C   LIG    1      -44.559  72.369  21.632  0.00  0.00    +0.033 C 
BRANCH  33  39
ATOM     39  O   LIG    1      -44.405  73.265  19.397  0.00  0.00    -0.392 OA
ATOM     40  H   LIG    1      -43.786  73.244  18.646  0.00  0.00    +0.210 HD
ENDBRANCH  33  39
ENDBRANCH  31  36
BRANCH  32  41
ATOM     41  O   LIG    1      -40.261  70.603  23.768  0.00  0.00    -0.491 OA
ATOM     42  H   LIG    1      -40.062  70.526  24.721  0.00  0.00    +0.294 HD
ENDBRANCH  32  41
ENDBRANCH   1  32
TORSDOF 8
ENDMDL
MODEL 9
REMARK VINA RESULT:      -6.6      3.792      8.849
REMARK  Name = pdb/CHEMBL3931190.pdb
REMARK                            x       y       z     vdW  Elec       q    Type
REMARK                         _______ _______ _______ _____ _____    ______ ____
ROOT
ATOM      1  C   LIG    1      -37.810  76.749  26.690  0.00  0.00    +0.149 A 
ATOM      2  N   LIG    1      -38.944  77.385  26.355  0.00  0.00    -0.160 NA
ATOM      3  N   LIG    1      -39.565  76.556  25.458  0.00  0.00    -0.218 N 
ATOM      4  C   LIG    1      -38.793  75.415  25.204  0.00  0.00    +0.129 A 
ATOM      5  C   LIG    1      -37.644  75.580  25.932  0.00  0.00    +0.078 A 
ENDROOT
BRANCH   3   6
ATOM      6  C   LIG    1      -40.833  76.937  24.933  0.00  0.00    +0.067 A 
ATOM      7  C   LIG    1      -41.743  77.710  25.661  0.00  0.00    +0.028 A 
ATOM      8  C   LIG    1      -42.995  78.021  25.116  0.00  0.00    +0.002 A 
ATOM      9  C   LIG    1      -43.339  77.572  23.842  0.00  0.00    +0.000 A 
ATOM     10  C   LIG    1      -42.424  76.837  23.095  0.00  0.00    +0.002 A 
ATOM     11  C   LIG    1      -41.171  76.532  23.630  0.00  0.00    +0.028 A 
ENDBRANCH   3   6
BRANCH   4  12
ATOM     12  N   LIG    1      -39.050  74.347  24.314  0.00  0.00    -0.266 N 
ATOM     13  H   LIG    1      -38.699  74.393  23.376  0.00  0.00    +0.157 HD
ATOM     14  C   LIG    1      -39.849  73.216  24.730  0.00  0.00    +0.251 C 
ATOM     15  O   LIG    1      -40.385  73.203  25.825  0.00  0.00    -0.270 OA
BRANCH  14  16
ATOM     16  C   LIG    1      -40.041  72.056  23.843  0.00  0.00    +0.056 A 
ATOM     17  C   LIG    1      -41.205  71.798  23.124  0.00  0.00    +0.056 A 
ATOM     18 CL   LIG    1      -42.554  72.867  23.073  0.00  0.00    -0.083 Cl
ATOM     19  C   LIG    1      -41.331  70.591  22.439  0.00  0.00    +0.059 A 
ATOM     20  C   LIG    1      -40.303  69.648  22.477  0.00  0.00    +0.134 A 
ATOM     21  F   LIG    1      -40.539  68.477  21.871  0.00  0.00    -0.205 F 
ATOM     22  C   LIG    1      -39.101  69.877  23.156  0.00  0.00    +0.039 A 
ATOM     23  C   LIG    1      -39.001  71.107  23.846  0.00  0.00    +0.027 A 
BRANCH  22  24
ATOM     24  C   LIG    1      -37.996  68.897  23.214  0.00  0.00    +0.109 A 
ATOM     25  C   LIG    1      -37.124  68.640  22.155  0.00  0.00    +0.149 A 
ATOM     26  F   LIG    1      -37.189  69.321  21.004  0.00  0.00    -0.203 F 
ATOM     27  C   LIG    1      -36.121  67.689  22.299  0.00  0.00    +0.042 A 
ATOM     28  C   LIG    1      -35.985  67.021  23.508  0.00  0.00    +0.023 A 
ATOM     29  C   LIG    1      -36.863  67.340  24.529  0.00  0.00    +0.111 A 
ATOM     30  N   LIG    1      -37.856  68.256  24.411  0.00  0.00    -0.252 NA
ENDBRANCH  22  24
ENDBRANCH  14  16
ENDBRANCH   4  12
BRANCH   1  32
ATOM     31  N   LIG    1      -35.670  77.422  27.498  0.00  0.00    -0.246 NA
ATOM     32  C   LIG    1      -36.922  77.260  27.731  0.00  0.00    +0.236 C 
BRANCH  31  36
ATOM     33  C   LIG    1      -32.444  78.829  27.042  0.00  0.00    +0.115 C 
ATOM     34  C   LIG    1      -33.701  79.684  27.211  0.00  0.00    +0.033 C 
ATOM     35  C   LIG    1      -34.471  79.343  28.486  0.00  0.00    +0.029 C 
ATOM     36  C   LIG    1      -34.791  77.849  28.596  0.00  0.00    +0.109 C 
ATOM     37  C   LIG    1      -33.483  77.046  28.500  0.00  0.00    +0.029 C 
ATOM     38  C   LIG    1      -32.725  77.336  27.205  0.00  0.00    +0.033 C 
BRANCH  33  39
ATOM     39  O   LIG    1      -31.875  79.070  25.758  0.00  0.00    -0.392 OA
ATOM     40  H   LIG    1      -30.951  79.342  25.893  0.00  0.00    +0.210 HD
ENDBRANCH  33  39
ENDBRANCH  31  36
BRANCH  32  41
ATOM     41  O   LIG    1      -37.523  77.499  28.918  0.00  0.00    -0.491 OA
ATOM     42  H   LIG    1      -37.021  77.036  29.617  0.00  0.00    +0.294 HD
ENDBRANCH  32  41
ENDBRANCH   1  32
TORSDOF 8
ENDMDL
