MODEL 1
REMARK VINA RESULT:      -7.2      0.000      0.000
REMARK  Name = pdb/CHEMBL3898851.pdb
REMARK                            x       y       z     vdW  Elec       q    Type
REMARK                         _______ _______ _______ _____ _____    ______ ____
ROOT
ATOM      1  C   LIG    1      -30.084  75.779  31.120  0.00  0.00    +0.149 A 
ATOM      2  N   LIG    1      -29.682  74.548  31.474  0.00  0.00    -0.160 NA
ATOM      3  N   LIG    1      -28.480  74.718  32.086  0.00  0.00    -0.218 N 
ATOM      4  C   LIG    1      -28.101  76.068  32.110  0.00  0.00    +0.129 A 
ATOM      5  C   LIG    1      -29.111  76.741  31.468  0.00  0.00    +0.078 A 
ENDROOT
BRANCH   3   6
ATOM      6  C   LIG    1      -27.767  73.577  32.556  0.00  0.00    +0.067 A 
ATOM      7  C   LIG    1      -28.114  72.922  33.741  0.00  0.00    +0.028 A 
ATOM      8  C   LIG    1      -27.334  71.865  34.223  0.00  0.00    +0.002 A 
ATOM      9  C   LIG    1      -26.215  71.441  33.510  0.00  0.00    +0.000 A 
ATOM     10  C   LIG    1      -25.898  72.048  32.298  0.00  0.00    +0.002 A 
ATOM     11  C   LIG    1      -26.678  73.100  31.812  0.00  0.00    +0.028 A 
ENDBRANCH   3   6
BRANCH   4  12
ATOM     12  N   LIG    1      -26.903  76.638  32.570  0.00  0.00    -0.266 N 
ATOM     13  H   LIG    1      -26.852  76.907  33.544  0.00  0.00    +0.157 HD
ATOM     14  C   LIG    1      -25.764  76.869  31.712  0.00  0.00    +0.251 C 
ATOM     15  O   LIG    1      -25.805  76.595  30.511  0.00  0.00    -0.270 OA
BRANCH  14  16
ATOM     16  C   LIG    1      -24.520  77.416  32.307  0.00  0.00    +0.056 A 
ATOM     17  C   LIG    1      -23.246  76.999  31.951  0.00  0.00    +0.054 A 
ATOM     18 CL   LIG    1      -22.919  75.720  30.853  0.00  0.00    -0.083 Cl
ATOM     19  C   LIG    1      -22.134  77.592  32.540  0.00  0.00    +0.041 A 
ATOM     20  C   LIG    1      -22.272  78.589  33.516  0.00  0.00    +0.052 A 
ATOM     21 CL   LIG    1      -20.773  79.145  34.176  0.00  0.00    -0.083 Cl
ATOM     22  C   LIG    1      -23.543  79.029  33.935  0.00  0.00    +0.019 A 
ATOM     23  C   LIG    1      -24.657  78.397  33.311  0.00  0.00    +0.026 A 
BRANCH  22  24
ATOM     24  C   LIG    1      -23.805  80.068  34.968  0.00  0.00    +0.073 A 
ATOM     25  N   LIG    1      -24.979  79.914  35.640  0.00  0.00    -0.252 NA
ATOM     26  C   LIG    1      -25.314  80.843  36.575  0.00  0.00    +0.149 A 
ATOM     27  C   LIG    1      -24.525  81.930  36.889  0.00  0.00    +0.141 A 
ATOM     28  F   LIG    1      -24.909  82.817  37.813  0.00  0.00    -0.204 F 
ATOM     29  C   LIG    1      -23.333  82.094  36.211  0.00  0.00    +0.042 A 
ATOM     30  C   LIG    1      -22.979  81.167  35.228  0.00  0.00    +0.031 A 
ENDBRANCH  22  24
ENDBRANCH  14  16
ENDBRANCH   4  12
BRANCH   1  32
ATOM     31  N   LIG    1      -31.481  75.816  29.205  0.00  0.00    -0.208 NA
ATOM     32  C   LIG    1      -31.368  76.059  30.468  0.00  0.00    +0.241 C 
BRANCH  31  35
ATOM     33  C   LIG    1      -32.002  78.528  27.805  0.00  0.00    +0.070 C 
ATOM     34  C   LIG    1      -32.842  77.305  27.796  0.00  0.00    +0.085 A 
ATOM     35  C   LIG    1      -32.640  76.058  28.460  0.00  0.00    +0.111 A 
ATOM     36  C   LIG    1      -33.691  75.261  28.051  0.00  0.00    +0.059 A 
ATOM     37  C   LIG    1      -34.131  73.862  28.266  0.00  0.00    +0.067 C 
ATOM     38  N   LIG    1      -34.439  76.060  27.220  0.00  0.00    -0.279 N 
ATOM     39  H   LIG    1      -35.280  75.812  26.709  0.00  0.00    +0.189 HD
ATOM     40  N   LIG    1      -33.962  77.298  27.064  0.00  0.00    -0.177 NA
ENDBRANCH  31  35
BRANCH  32  41
ATOM     41  O   LIG    1      -32.281  76.641  31.268  0.00  0.00    -0.491 OA
ATOM     42  H   LIG    1      -33.020  76.041  31.414  0.00  0.00    +0.294 HD
ENDBRANCH  32  41
ENDBRANCH   1  32
TORSDOF 7
ENDMDL
MODEL 2
REMARK VINA RESULT:      -7.1     10.443     14.629
REMARK  Name = pdb/CHEMBL3898851.pdb
REMARK                            x       y       z     vdW  Elec       q    Type
REMARK                         _______ _______ _______ _____ _____    ______ ____
ROOT
ATOM      1  C   LIG    1      -37.048  80.024  27.694  0.00  0.00    +0.149 A 
ATOM      2  N   LIG    1      -36.042  79.276  28.174  0.00  0.00    -0.160 NA
ATOM      3  N   LIG    1      -36.314  78.002  27.784  0.00  0.00    -0.218 N 
ATOM      4  C   LIG    1      -37.513  77.931  27.060  0.00  0.00    +0.129 A 
ATOM      5  C   LIG    1      -37.995  79.217  27.028  0.00  0.00    +0.078 A 
ENDROOT
BRANCH   3   6
ATOM      6  C   LIG    1      -35.436  76.949  28.171  0.00  0.00    +0.067 A 
ATOM      7  C   LIG    1      -35.502  76.354  29.435  0.00  0.00    +0.028 A 
ATOM      8  C   LIG    1      -34.563  75.390  29.816  0.00  0.00    +0.002 A 
ATOM      9  C   LIG    1      -33.565  74.996  28.927  0.00  0.00    +0.000 A 
ATOM     10  C   LIG    1      -33.530  75.539  27.645  0.00  0.00    +0.002 A 
ATOM     11  C   LIG    1      -34.470  76.498  27.260  0.00  0.00    +0.028 A 
ENDBRANCH   3   6
BRANCH   4  12
ATOM     12  N   LIG    1      -38.176  76.797  26.563  0.00  0.00    -0.266 N 
ATOM     13  H   LIG    1      -38.842  76.337  27.171  0.00  0.00    +0.157 HD
ATOM     14  C   LIG    1      -37.933  76.260  25.244  0.00  0.00    +0.251 C 
ATOM     15  O   LIG    1      -37.098  76.768  24.494  0.00  0.00    -0.270 OA
BRANCH  14  16
ATOM     16  C   LIG    1      -38.733  75.098  24.788  0.00  0.00    +0.056 A 
ATOM     17  C   LIG    1      -39.989  75.204  24.210  0.00  0.00    +0.054 A 
ATOM     18 CL   LIG    1      -40.850  76.679  24.033  0.00  0.00    -0.083 Cl
ATOM     19  C   LIG    1      -40.653  74.059  23.782  0.00  0.00    +0.041 A 
ATOM     20  C   LIG    1      -40.092  72.786  23.950  0.00  0.00    +0.052 A 
ATOM     21 CL   LIG    1      -41.106  71.488  23.420  0.00  0.00    -0.083 Cl
ATOM     22  C   LIG    1      -38.832  72.619  24.558  0.00  0.00    +0.019 A 
ATOM     23  C   LIG    1      -38.183  73.813  24.985  0.00  0.00    +0.026 A 
BRANCH  22  24
ATOM     24  C   LIG    1      -38.149  71.317  24.797  0.00  0.00    +0.073 A 
ATOM     25  N   LIG    1      -37.876  71.054  26.105  0.00  0.00    -0.252 NA
ATOM     26  C   LIG    1      -37.219  69.903  26.408  0.00  0.00    +0.149 A 
ATOM     27  C   LIG    1      -36.819  68.981  25.464  0.00  0.00    +0.141 A 
ATOM     28  F   LIG    1      -36.168  67.867  25.819  0.00  0.00    -0.204 F 
ATOM     29  C   LIG    1      -37.090  69.240  24.135  0.00  0.00    +0.042 A 
ATOM     30  C   LIG    1      -37.742  70.429  23.796  0.00  0.00    +0.031 A 
ENDBRANCH  22  24
ENDBRANCH  14  16
ENDBRANCH   4  12
BRANCH   1  32
ATOM     31  N   LIG    1      -36.062  82.179  27.622  0.00  0.00    -0.208 NA
ATOM     32  C   LIG    1      -37.125  81.480  27.848  0.00  0.00    +0.241 C 
BRANCH  31  35
ATOM     33  C   LIG    1      -34.547  83.541  29.953  0.00  0.00    +0.070 C 
ATOM     34  C   LIG    1      -35.262  84.174  28.818  0.00  0.00    +0.085 A 
ATOM     35  C   LIG    1      -35.995  83.569  27.753  0.00  0.00    +0.111 A 
ATOM     36  C   LIG    1      -36.390  84.620  26.950  0.00  0.00    +0.059 A 
ATOM     37  C   LIG    1      -37.122  84.784  25.671  0.00  0.00    +0.067 C 
ATOM     38  N   LIG    1      -35.907  85.745  27.574  0.00  0.00    -0.279 N 
ATOM     39  H   LIG    1      -35.983  86.709  27.266  0.00  0.00    +0.189 HD
ATOM     40  N   LIG    1      -35.242  85.507  28.707  0.00  0.00    -0.177 NA
ENDBRANCH  31  35
BRANCH  32  41
ATOM     41  O   LIG    1      -38.308  81.928  28.309  0.00  0.00    -0.491 OA
ATOM     42  H   LIG    1      -38.756  81.229  28.797  0.00  0.00    +0.294 HD
ENDBRANCH  32  41
ENDBRANCH   1  32
TORSDOF 7
ENDMDL
MODEL 3
REMARK VINA RESULT:      -7.0     10.559     15.645
REMARK  Name = pdb/CHEMBL3898851.pdb
REMARK                            x       y       z     vdW  Elec       q    Type
REMARK                         _______ _______ _______ _____ _____    ______ ____
ROOT
ATOM      1  C   LIG    1      -39.205  84.692  22.424  0.00  0.00    +0.149 A 
ATOM      2  N   LIG    1      -38.872  85.905  22.890  0.00  0.00    -0.160 NA
ATOM      3  N   LIG    1      -38.289  85.686  24.100  0.00  0.00    -0.218 N 
ATOM      4  C   LIG    1      -38.262  84.320  24.417  0.00  0.00    +0.129 A 
ATOM      5  C   LIG    1      -38.874  83.689  23.361  0.00  0.00    +0.078 A 
ENDROOT
BRANCH   3   6
ATOM      6  C   LIG    1      -37.847  86.796  24.875  0.00  0.00    +0.067 A 
ATOM      7  C   LIG    1      -38.284  87.005  26.187  0.00  0.00    +0.028 A 
ATOM      8  C   LIG    1      -37.906  88.157  26.886  0.00  0.00    +0.002 A 
ATOM      9  C   LIG    1      -37.067  89.094  26.286  0.00  0.00    +0.000 A 
ATOM     10  C   LIG    1      -36.578  88.862  25.004  0.00  0.00    +0.002 A 
ATOM     11  C   LIG    1      -36.950  87.711  24.305  0.00  0.00    +0.028 A 
ENDBRANCH   3   6
BRANCH   4  12
ATOM     12  N   LIG    1      -37.828  83.699  25.599  0.00  0.00    -0.266 N 
ATOM     13  H   LIG    1      -38.534  83.360  26.240  0.00  0.00    +0.157 HD
ATOM     14  C   LIG    1      -36.432  83.543  25.938  0.00  0.00    +0.251 C 
ATOM     15  O   LIG    1      -35.546  83.983  25.202  0.00  0.00    -0.270 OA
BRANCH  14  16
ATOM     16  C   LIG    1      -36.075  82.814  27.178  0.00  0.00    +0.056 A 
ATOM     17  C   LIG    1      -36.224  83.341  28.453  0.00  0.00    +0.054 A 
ATOM     18 CL   LIG    1      -36.742  84.944  28.782  0.00  0.00    -0.083 Cl
ATOM     19  C   LIG    1      -35.892  82.571  29.563  0.00  0.00    +0.041 A 
ATOM     20  C   LIG    1      -35.376  81.275  29.423  0.00  0.00    +0.052 A 
ATOM     21 CL   LIG    1      -34.957  80.513  30.918  0.00  0.00    -0.083 Cl
ATOM     22  C   LIG    1      -35.176  80.704  28.151  0.00  0.00    +0.019 A 
ATOM     23  C   LIG    1      -35.526  81.522  27.038  0.00  0.00    +0.026 A 
BRANCH  22  24
ATOM     24  C   LIG    1      -34.625  79.346  27.885  0.00  0.00    +0.073 A 
ATOM     25  N   LIG    1      -35.565  78.368  27.765  0.00  0.00    -0.252 NA
ATOM     26  C   LIG    1      -35.144  77.091  27.560  0.00  0.00    +0.149 A 
ATOM     27  C   LIG    1      -33.817  76.731  27.458  0.00  0.00    +0.141 A 
ATOM     28  F   LIG    1      -33.460  75.457  27.263  0.00  0.00    -0.204 F 
ATOM     29  C   LIG    1      -32.858  77.717  27.579  0.00  0.00    +0.042 A 
ATOM     30  C   LIG    1      -33.264  79.033  27.816  0.00  0.00    +0.031 A 
ENDBRANCH  22  24
ENDBRANCH  14  16
ENDBRANCH   4  12
BRANCH   1  32
ATOM     31  N   LIG    1      -40.987  84.975  20.886  0.00  0.00    -0.208 NA
ATOM     32  C   LIG    1      -39.823  84.465  21.114  0.00  0.00    +0.241 C 
BRANCH  31  35
ATOM     33  C   LIG    1      -40.691  86.954  18.524  0.00  0.00    +0.070 C 
ATOM     34  C   LIG    1      -41.514  85.723  18.603  0.00  0.00    +0.085 A 
ATOM     35  C   LIG    1      -41.694  84.816  19.690  0.00  0.00    +0.111 A 
ATOM     36  C   LIG    1      -42.508  83.819  19.192  0.00  0.00    +0.059 A 
ATOM     37  C   LIG    1      -43.080  82.544  19.689  0.00  0.00    +0.067 C 
ATOM     38  N   LIG    1      -42.774  84.191  17.896  0.00  0.00    -0.279 N 
ATOM     39  H   LIG    1      -43.324  83.692  17.206  0.00  0.00    +0.189 HD
ATOM     40  N   LIG    1      -42.205  85.340  17.522  0.00  0.00    -0.177 NA
ENDBRANCH  31  35
BRANCH  32  41
ATOM     41  O   LIG    1      -39.121  83.650  20.303  0.00  0.00    -0.491 OA
ATOM     42  H   LIG    1      -38.700  82.955  20.821  0.00  0.00    +0.294 HD
ENDBRANCH  32  41
ENDBRANCH   1  32
TORSDOF 7
ENDMDL
MODEL 4
REMARK VINA RESULT:      -6.9     10.945     18.103
REMARK  Name = pdb/CHEMBL3898851.pdb
REMARK                            x       y       z     vdW  Elec       q    Type
REMARK                         _______ _______ _______ _____ _____    ______ ____
ROOT
ATOM      1  C   LIG    1      -37.476  76.394  26.322  0.00  0.00    +0.149 A 
ATOM      2  N   LIG    1      -37.723  75.122  25.973  0.00  0.00    -0.160 NA
ATOM      3  N   LIG    1      -38.750  75.179  25.083  0.00  0.00    -0.218 N 
ATOM      4  C   LIG    1      -39.174  76.498  24.872  0.00  0.00    +0.129 A 
ATOM      5  C   LIG    1      -38.381  77.270  25.685  0.00  0.00    +0.078 A 
ENDROOT
BRANCH   3   6
ATOM      6  C   LIG    1      -39.274  73.970  24.542  0.00  0.00    +0.067 A 
ATOM      7  C   LIG    1      -40.508  73.924  23.887  0.00  0.00    +0.028 A 
ATOM      8  C   LIG    1      -41.038  72.704  23.453  0.00  0.00    +0.002 A 
ATOM      9  C   LIG    1      -40.324  71.524  23.648  0.00  0.00    +0.000 A 
ATOM     10  C   LIG    1      -39.066  71.569  24.244  0.00  0.00    +0.002 A 
ATOM     11  C   LIG    1      -38.533  72.787  24.674  0.00  0.00    +0.028 A 
ENDBRANCH   3   6
BRANCH   4  12
ATOM     12  N   LIG    1      -40.252  76.964  24.101  0.00  0.00    -0.266 N 
ATOM     13  H   LIG    1      -40.075  77.193  23.132  0.00  0.00    +0.157 HD
ATOM     14  C   LIG    1      -41.582  77.142  24.638  0.00  0.00    +0.251 C 
ATOM     15  O   LIG    1      -41.825  76.915  25.825  0.00  0.00    -0.270 OA
BRANCH  14  16
ATOM     16  C   LIG    1      -42.668  77.576  23.727  0.00  0.00    +0.056 A 
ATOM     17  C   LIG    1      -43.161  78.871  23.676  0.00  0.00    +0.054 A 
ATOM     18 CL   LIG    1      -42.667  80.135  24.727  0.00  0.00    -0.083 Cl
ATOM     19  C   LIG    1      -44.162  79.195  22.765  0.00  0.00    +0.041 A 
ATOM     20  C   LIG    1      -44.710  78.229  21.911  0.00  0.00    +0.052 A 
ATOM     21 CL   LIG    1      -45.991  78.816  20.907  0.00  0.00    -0.083 Cl
ATOM     22  C   LIG    1      -44.266  76.893  21.942  0.00  0.00    +0.019 A 
ATOM     23  C   LIG    1      -43.243  76.598  22.888  0.00  0.00    +0.026 A 
BRANCH  22  24
ATOM     24  C   LIG    1      -44.784  75.785  21.091  0.00  0.00    +0.073 A 
ATOM     25  N   LIG    1      -45.314  74.740  21.784  0.00  0.00    -0.252 NA
ATOM     26  C   LIG    1      -45.775  73.670  21.084  0.00  0.00    +0.149 A 
ATOM     27  C   LIG    1      -45.745  73.586  19.708  0.00  0.00    +0.141 A 
ATOM     28  F   LIG    1      -46.207  72.504  19.072  0.00  0.00    -0.204 F 
ATOM     29  C   LIG    1      -45.208  74.641  18.997  0.00  0.00    +0.042 A 
ATOM     30  C   LIG    1      -44.704  75.742  19.695  0.00  0.00    +0.031 A 
ENDBRANCH  22  24
ENDBRANCH  14  16
ENDBRANCH   4  12
BRANCH   1  32
ATOM     31  N   LIG    1      -35.188  76.789  26.799  0.00  0.00    -0.208 NA
ATOM     32  C   LIG    1      -36.403  76.793  27.238  0.00  0.00    +0.241 C 
BRANCH  31  35
ATOM     33  C   LIG    1      -33.500  74.651  28.272  0.00  0.00    +0.070 C 
ATOM     34  C   LIG    1      -33.291  76.119  28.215  0.00  0.00    +0.085 A 
ATOM     35  C   LIG    1      -34.073  77.125  27.573  0.00  0.00    +0.111 A 
ATOM     36  C   LIG    1      -33.384  78.303  27.787  0.00  0.00    +0.059 A 
ATOM     37  C   LIG    1      -33.536  79.726  27.400  0.00  0.00    +0.067 C 
ATOM     38  N   LIG    1      -32.290  77.943  28.535  0.00  0.00    -0.279 N 
ATOM     39  H   LIG    1      -31.540  78.540  28.868  0.00  0.00    +0.189 HD
ATOM     40  N   LIG    1      -32.218  76.641  28.822  0.00  0.00    -0.177 NA
ENDBRANCH  31  35
BRANCH  32  41
ATOM     41  O   LIG    1      -36.810  77.040  28.497  0.00  0.00    -0.491 OA
ATOM     42  H   LIG    1      -36.530  77.922  28.766  0.00  0.00    +0.294 HD
ENDBRANCH  32  41
ENDBRANCH   1  32
TORSDOF 7
ENDMDL
MODEL 5
REMARK VINA RESULT:      -6.9      9.146     13.501
REMARK  Name = pdb/CHEMBL3898851.pdb
REMARK                            x       y       z     vdW  Elec       q    Type
REMARK                         _______ _______ _______ _____ _____    ______ ____
ROOT
ATOM      1  C   LIG    1      -40.410  72.873  24.031  0.00  0.00    +0.149 A 
ATOM      2  N   LIG    1      -40.803  74.154  23.974  0.00  0.00    -0.160 NA
ATOM      3  N   LIG    1      -39.771  74.878  24.485  0.00  0.00    -0.218 N 
ATOM      4  C   LIG    1      -38.713  74.050  24.886  0.00  0.00    +0.129 A 
ATOM      5  C   LIG    1      -39.132  72.769  24.624  0.00  0.00    +0.078 A 
ENDROOT
BRANCH   3   6
ATOM      6  C   LIG    1      -39.894  76.293  24.593  0.00  0.00    +0.067 A 
ATOM      7  C   LIG    1      -39.814  77.132  23.477  0.00  0.00    +0.028 A 
ATOM      8  C   LIG    1      -39.842  78.523  23.631  0.00  0.00    +0.002 A 
ATOM      9  C   LIG    1      -39.976  79.083  24.899  0.00  0.00    +0.000 A 
ATOM     10  C   LIG    1      -40.118  78.254  26.009  0.00  0.00    +0.002 A 
ATOM     11  C   LIG    1      -40.096  76.865  25.858  0.00  0.00    +0.028 A 
ENDBRANCH   3   6
BRANCH   4  12
ATOM     12  N   LIG    1      -37.517  74.402  25.534  0.00  0.00    -0.266 N 
ATOM     13  H   LIG    1      -36.709  74.601  24.957  0.00  0.00    +0.157 HD
ATOM     14  C   LIG    1      -37.394  74.471  26.972  0.00  0.00    +0.251 C 
ATOM     15  O   LIG    1      -38.344  74.193  27.706  0.00  0.00    -0.270 OA
BRANCH  14  16
ATOM     16  C   LIG    1      -36.107  74.916  27.558  0.00  0.00    +0.056 A 
ATOM     17  C   LIG    1      -35.056  74.060  27.851  0.00  0.00    +0.054 A 
ATOM     18 CL   LIG    1      -35.123  72.353  27.681  0.00  0.00    -0.083 Cl
ATOM     19  C   LIG    1      -33.871  74.572  28.371  0.00  0.00    +0.041 A 
ATOM     20  C   LIG    1      -33.723  75.939  28.637  0.00  0.00    +0.052 A 
ATOM     21 CL   LIG    1      -32.204  76.363  29.349  0.00  0.00    -0.083 Cl
ATOM     22  C   LIG    1      -34.770  76.848  28.386  0.00  0.00    +0.019 A 
ATOM     23  C   LIG    1      -35.967  76.288  27.856  0.00  0.00    +0.026 A 
BRANCH  22  24
ATOM     24  C   LIG    1      -34.726  78.315  28.641  0.00  0.00    +0.073 A 
ATOM     25  N   LIG    1      -34.430  79.070  27.548  0.00  0.00    -0.252 NA
ATOM     26  C   LIG    1      -34.333  80.418  27.702  0.00  0.00    +0.149 A 
ATOM     27  C   LIG    1      -34.526  81.065  28.904  0.00  0.00    +0.141 A 
ATOM     28  F   LIG    1      -34.410  82.394  29.000  0.00  0.00    -0.204 F 
ATOM     29  C   LIG    1      -34.826  80.306  30.018  0.00  0.00    +0.042 A 
ATOM     30  C   LIG    1      -34.906  78.917  29.890  0.00  0.00    +0.031 A 
ENDBRANCH  22  24
ENDBRANCH  14  16
ENDBRANCH   4  12
BRANCH   1  32
ATOM     31  N   LIG    1      -40.689  70.965  22.652  0.00  0.00    -0.208 NA
ATOM     32  C   LIG    1      -41.213  71.752  23.532  0.00  0.00    +0.241 C 
BRANCH  31  35
ATOM     33  C   LIG    1      -42.536  71.272  20.186  0.00  0.00    +0.070 C 
ATOM     34  C   LIG    1      -42.172  70.037  20.923  0.00  0.00    +0.085 A 
ATOM     35  C   LIG    1      -41.353  69.875  22.080  0.00  0.00    +0.111 A 
ATOM     36  C   LIG    1      -41.305  68.512  22.296  0.00  0.00    +0.059 A 
ATOM     37  C   LIG    1      -40.636  67.594  23.249  0.00  0.00    +0.067 C 
ATOM     38  N   LIG    1      -42.089  67.969  21.307  0.00  0.00    -0.279 N 
ATOM     39  H   LIG    1      -42.275  66.987  21.129  0.00  0.00    +0.189 HD
ATOM     40  N   LIG    1      -42.636  68.862  20.480  0.00  0.00    -0.177 NA
ENDBRANCH  31  35
BRANCH  32  41
ATOM     41  O   LIG    1      -42.476  71.724  23.997  0.00  0.00    -0.491 OA
ATOM     42  H   LIG    1      -42.952  70.981  23.611  0.00  0.00    +0.294 HD
ENDBRANCH  32  41
ENDBRANCH   1  32
TORSDOF 7
ENDMDL
MODEL 6
REMARK VINA RESULT:      -6.9     10.465     17.008
REMARK  Name = pdb/CHEMBL3898851.pdb
REMARK                            x       y       z     vdW  Elec       q    Type
REMARK                         _______ _______ _______ _____ _____    ______ ____
ROOT
ATOM      1  C   LIG    1      -37.520  76.633  26.439  0.00  0.00    +0.149 A 
ATOM      2  N   LIG    1      -38.623  77.367  26.224  0.00  0.00    -0.160 NA
ATOM      3  N   LIG    1      -39.427  76.600  25.440  0.00  0.00    -0.218 N 
ATOM      4  C   LIG    1      -38.826  75.369  25.137  0.00  0.00    +0.129 A 
ATOM      5  C   LIG    1      -37.598  75.404  25.750  0.00  0.00    +0.078 A 
ENDROOT
BRANCH   3   6
ATOM      6  C   LIG    1      -40.680  77.118  25.003  0.00  0.00    +0.067 A 
ATOM      7  C   LIG    1      -41.875  76.413  25.177  0.00  0.00    +0.028 A 
ATOM      8  C   LIG    1      -43.074  76.906  24.650  0.00  0.00    +0.002 A 
ATOM      9  C   LIG    1      -43.090  78.121  23.968  0.00  0.00    +0.000 A 
ATOM     10  C   LIG    1      -41.915  78.859  23.845  0.00  0.00    +0.002 A 
ATOM     11  C   LIG    1      -40.718  78.371  24.375  0.00  0.00    +0.028 A 
ENDBRANCH   3   6
BRANCH   4  12
ATOM     12  N   LIG    1      -39.290  74.347  24.293  0.00  0.00    -0.266 N 
ATOM     13  H   LIG    1      -39.097  74.429  23.303  0.00  0.00    +0.157 HD
ATOM     14  C   LIG    1      -40.035  73.208  24.776  0.00  0.00    +0.251 C 
ATOM     15  O   LIG    1      -40.326  73.096  25.968  0.00  0.00    -0.270 OA
BRANCH  14  16
ATOM     16  C   LIG    1      -40.424  72.148  23.815  0.00  0.00    +0.056 A 
ATOM     17  C   LIG    1      -41.609  72.156  23.094  0.00  0.00    +0.054 A 
ATOM     18 CL   LIG    1      -42.847  73.330  23.284  0.00  0.00    -0.083 Cl
ATOM     19  C   LIG    1      -41.875  71.134  22.189  0.00  0.00    +0.041 A 
ATOM     20  C   LIG    1      -40.981  70.070  22.007  0.00  0.00    +0.052 A 
ATOM     21 CL   LIG    1      -41.530  68.866  20.893  0.00  0.00    -0.083 Cl
ATOM     22  C   LIG    1      -39.777  69.998  22.734  0.00  0.00    +0.019 A 
ATOM     23  C   LIG    1      -39.540  71.061  23.653  0.00  0.00    +0.026 A 
BRANCH  22  24
ATOM     24  C   LIG    1      -38.764  68.912  22.630  0.00  0.00    +0.073 A 
ATOM     25  N   LIG    1      -39.104  67.758  23.268  0.00  0.00    -0.252 NA
ATOM     26  C   LIG    1      -38.217  66.728  23.255  0.00  0.00    +0.149 A 
ATOM     27  C   LIG    1      -36.992  66.782  22.623  0.00  0.00    +0.141 A 
ATOM     28  F   LIG    1      -36.155  65.740  22.649  0.00  0.00    -0.204 F 
ATOM     29  C   LIG    1      -36.639  67.949  21.974  0.00  0.00    +0.042 A 
ATOM     30  C   LIG    1      -37.523  69.031  21.995  0.00  0.00    +0.031 A 
ENDBRANCH  22  24
ENDBRANCH  14  16
ENDBRANCH   4  12
BRANCH   1  32
ATOM     31  N   LIG    1      -35.200  76.857  26.870  0.00  0.00    -0.208 NA
ATOM     32  C   LIG    1      -36.404  77.070  27.284  0.00  0.00    +0.241 C 
BRANCH  31  35
ATOM     33  C   LIG    1      -33.383  74.729  28.197  0.00  0.00    +0.070 C 
ATOM     34  C   LIG    1      -33.211  76.202  28.161  0.00  0.00    +0.085 A 
ATOM     35  C   LIG    1      -34.051  77.204  27.588  0.00  0.00    +0.111 A 
ATOM     36  C   LIG    1      -33.378  78.392  27.790  0.00  0.00    +0.059 A 
ATOM     37  C   LIG    1      -33.583  79.820  27.444  0.00  0.00    +0.067 C 
ATOM     38  N   LIG    1      -32.235  78.043  28.467  0.00  0.00    -0.279 N 
ATOM     39  H   LIG    1      -31.481  78.650  28.770  0.00  0.00    +0.189 HD
ATOM     40  N   LIG    1      -32.118  76.737  28.719  0.00  0.00    -0.177 NA
ENDBRANCH  31  35
BRANCH  32  41
ATOM     41  O   LIG    1      -36.776  77.579  28.474  0.00  0.00    -0.491 OA
ATOM     42  H   LIG    1      -36.605  78.526  28.494  0.00  0.00    +0.294 HD
ENDBRANCH  32  41
ENDBRANCH   1  32
TORSDOF 7
ENDMDL
MODEL 7
REMARK VINA RESULT:      -6.9     10.131     16.113
REMARK  Name = pdb/CHEMBL3898851.pdb
REMARK                            x       y       z     vdW  Elec       q    Type
REMARK                         _______ _______ _______ _____ _____    ______ ____
ROOT
ATOM      1  C   LIG    1      -37.050  75.909  26.314  0.00  0.00    +0.149 A 
ATOM      2  N   LIG    1      -37.770  74.889  25.823  0.00  0.00    -0.160 NA
ATOM      3  N   LIG    1      -38.720  75.458  25.033  0.00  0.00    -0.218 N 
ATOM      4  C   LIG    1      -38.614  76.856  25.029  0.00  0.00    +0.129 A 
ATOM      5  C   LIG    1      -37.567  77.145  25.870  0.00  0.00    +0.078 A 
ENDROOT
BRANCH   3   6
ATOM      6  C   LIG    1      -39.678  74.629  24.382  0.00  0.00    +0.067 A 
ATOM      7  C   LIG    1      -40.856  75.146  23.834  0.00  0.00    +0.028 A 
ATOM      8  C   LIG    1      -41.820  74.291  23.288  0.00  0.00    +0.002 A 
ATOM      9  C   LIG    1      -41.601  72.916  23.264  0.00  0.00    +0.000 A 
ATOM     10  C   LIG    1      -40.404  72.399  23.751  0.00  0.00    +0.002 A 
ATOM     11  C   LIG    1      -39.437  73.251  24.292  0.00  0.00    +0.028 A 
ENDBRANCH   3   6
BRANCH   4  12
ATOM     12  N   LIG    1      -39.452  77.801  24.414  0.00  0.00    -0.266 N 
ATOM     13  H   LIG    1      -39.254  78.052  23.454  0.00  0.00    +0.157 HD
ATOM     14  C   LIG    1      -40.558  78.432  25.097  0.00  0.00    +0.251 C 
ATOM     15  O   LIG    1      -40.801  78.184  26.279  0.00  0.00    -0.270 OA
BRANCH  14  16
ATOM     16  C   LIG    1      -41.424  79.368  24.340  0.00  0.00    +0.056 A 
ATOM     17  C   LIG    1      -42.736  79.089  23.984  0.00  0.00    +0.054 A 
ATOM     18 CL   LIG    1      -43.516  77.586  24.270  0.00  0.00    -0.083 Cl
ATOM     19  C   LIG    1      -43.485  80.042  23.301  0.00  0.00    +0.041 A 
ATOM     20  C   LIG    1      -42.933  81.276  22.934  0.00  0.00    +0.052 A 
ATOM     21 CL   LIG    1      -44.002  82.290  22.028  0.00  0.00    -0.083 Cl
ATOM     22  C   LIG    1      -41.597  81.599  23.245  0.00  0.00    +0.019 A 
ATOM     23  C   LIG    1      -40.861  80.598  23.942  0.00  0.00    +0.026 A 
BRANCH  22  24
ATOM     24  C   LIG    1      -40.906  82.870  22.894  0.00  0.00    +0.073 A 
ATOM     25  N   LIG    1      -40.927  83.814  23.874  0.00  0.00    -0.252 NA
ATOM     26  C   LIG    1      -40.351  85.020  23.621  0.00  0.00    +0.149 A 
ATOM     27  C   LIG    1      -39.739  85.339  22.427  0.00  0.00    +0.141 A 
ATOM     28  F   LIG    1      -39.195  86.545  22.231  0.00  0.00    -0.204 F 
ATOM     29  C   LIG    1      -39.715  84.388  21.427  0.00  0.00    +0.042 A 
ATOM     30  C   LIG    1      -40.322  83.150  21.654  0.00  0.00    +0.031 A 
ENDBRANCH  22  24
ENDBRANCH  14  16
ENDBRANCH   4  12
BRANCH   1  32
ATOM     31  N   LIG    1      -35.213  76.784  27.532  0.00  0.00    -0.208 NA
ATOM     32  C   LIG    1      -35.883  75.735  27.185  0.00  0.00    +0.241 C 
BRANCH  31  35
ATOM     33  C   LIG    1      -32.417  77.563  26.456  0.00  0.00    +0.070 C 
ATOM     34  C   LIG    1      -32.799  77.151  27.829  0.00  0.00    +0.085 A 
ATOM     35  C   LIG    1      -34.071  76.754  28.339  0.00  0.00    +0.111 A 
ATOM     36  C   LIG    1      -33.865  76.543  29.688  0.00  0.00    +0.059 A 
ATOM     37  C   LIG    1      -34.694  76.171  30.860  0.00  0.00    +0.067 C 
ATOM     38  N   LIG    1      -32.529  76.793  29.886  0.00  0.00    -0.279 N 
ATOM     39  H   LIG    1      -32.013  76.762  30.759  0.00  0.00    +0.189 HD
ATOM     40  N   LIG    1      -31.861  77.142  28.783  0.00  0.00    -0.177 NA
ENDBRANCH  31  35
BRANCH  32  41
ATOM     41  O   LIG    1      -35.580  74.452  27.458  0.00  0.00    -0.491 OA
ATOM     42  H   LIG    1      -35.969  74.195  28.302  0.00  0.00    +0.294 HD
ENDBRANCH  32  41
ENDBRANCH   1  32
TORSDOF 7
ENDMDL
MODEL 8
REMARK VINA RESULT:      -6.8     15.495     18.755
REMARK  Name = pdb/CHEMBL3898851.pdb
REMARK                            x       y       z     vdW  Elec       q    Type
REMARK                         _______ _______ _______ _____ _____    ______ ____
ROOT
ATOM      1  C   LIG    1      -26.999  65.782  19.282  0.00  0.00    +0.149 A 
ATOM      2  N   LIG    1      -26.937  67.012  18.750  0.00  0.00    -0.160 NA
ATOM      3  N   LIG    1      -28.186  67.534  18.885  0.00  0.00    -0.218 N 
ATOM      4  C   LIG    1      -29.059  66.623  19.497  0.00  0.00    +0.129 A 
ATOM      5  C   LIG    1      -28.309  65.495  19.723  0.00  0.00    +0.078 A 
ENDROOT
BRANCH   3   6
ATOM      6  C   LIG    1      -28.458  68.838  18.380  0.00  0.00    +0.067 A 
ATOM      7  C   LIG    1      -28.115  69.994  19.087  0.00  0.00    +0.028 A 
ATOM      8  C   LIG    1      -28.484  71.256  18.608  0.00  0.00    +0.002 A 
ATOM      9  C   LIG    1      -29.177  71.371  17.405  0.00  0.00    +0.000 A 
ATOM     10  C   LIG    1      -29.469  70.228  16.664  0.00  0.00    +0.002 A 
ATOM     11  C   LIG    1      -29.097  68.967  17.138  0.00  0.00    +0.028 A 
ENDBRANCH   3   6
BRANCH   4  12
ATOM     12  N   LIG    1      -30.438  66.749  19.734  0.00  0.00    -0.266 N 
ATOM     13  H   LIG    1      -30.730  67.185  20.599  0.00  0.00    +0.157 HD
ATOM     14  C   LIG    1      -31.440  66.269  18.810  0.00  0.00    +0.251 C 
ATOM     15  O   LIG    1      -31.121  65.694  17.768  0.00  0.00    -0.270 OA
BRANCH  14  16
ATOM     16  C   LIG    1      -32.870  66.508  19.120  0.00  0.00    +0.056 A 
ATOM     17  C   LIG    1      -33.833  66.779  18.159  0.00  0.00    +0.054 A 
ATOM     18 CL   LIG    1      -33.499  66.985  16.487  0.00  0.00    -0.083 Cl
ATOM     19  C   LIG    1      -35.159  66.959  18.540  0.00  0.00    +0.041 A 
ATOM     20  C   LIG    1      -35.545  66.901  19.886  0.00  0.00    +0.052 A 
ATOM     21 CL   LIG    1      -37.222  67.223  20.157  0.00  0.00    -0.083 Cl
ATOM     22  C   LIG    1      -34.602  66.658  20.904  0.00  0.00    +0.019 A 
ATOM     23  C   LIG    1      -33.255  66.482  20.477  0.00  0.00    +0.026 A 
BRANCH  22  24
ATOM     24  C   LIG    1      -34.898  66.588  22.362  0.00  0.00    +0.073 A 
ATOM     25  N   LIG    1      -34.726  67.762  23.030  0.00  0.00    -0.252 NA
ATOM     26  C   LIG    1      -34.938  67.777  24.373  0.00  0.00    +0.149 A 
ATOM     27  C   LIG    1      -35.326  66.669  25.098  0.00  0.00    +0.141 A 
ATOM     28  F   LIG    1      -35.512  66.740  26.421  0.00  0.00    -0.204 F 
ATOM     29  C   LIG    1      -35.500  65.474  24.428  0.00  0.00    +0.042 A 
ATOM     30  C   LIG    1      -35.264  65.428  23.052  0.00  0.00    +0.031 A 
ENDBRANCH  22  24
ENDBRANCH  14  16
ENDBRANCH   4  12
BRANCH   1  32
ATOM     31  N   LIG    1      -25.237  64.792  20.522  0.00  0.00    -0.208 NA
ATOM     32  C   LIG    1      -25.847  64.881  19.386  0.00  0.00    +0.241 C 
BRANCH  31  35
ATOM     33  C   LIG    1      -25.479  61.858  21.481  0.00  0.00    +0.070 C 
ATOM     34  C   LIG    1      -24.253  62.629  21.157  0.00  0.00    +0.085 A 
ATOM     35  C   LIG    1      -24.115  63.989  20.748  0.00  0.00    +0.111 A 
ATOM     36  C   LIG    1      -22.763  64.158  20.522  0.00  0.00    +0.059 A 
ATOM     37  C   LIG    1      -21.878  65.248  20.045  0.00  0.00    +0.067 C 
ATOM     38  N   LIG    1      -22.198  62.942  20.823  0.00  0.00    -0.279 N 
ATOM     39  H   LIG    1      -21.222  62.677  20.756  0.00  0.00    +0.189 HD
ATOM     40  N   LIG    1      -23.068  62.012  21.225  0.00  0.00    -0.177 NA
ENDBRANCH  31  35
BRANCH  32  41
ATOM     41  O   LIG    1      -25.489  64.301  18.225  0.00  0.00    -0.491 OA
ATOM     42  H   LIG    1      -25.544  64.941  17.507  0.00  0.00    +0.294 HD
ENDBRANCH  32  41
ENDBRANCH   1  32
TORSDOF 7
ENDMDL
MODEL 9
REMARK VINA RESULT:      -6.8     17.396     19.898
REMARK  Name = pdb/CHEMBL3898851.pdb
REMARK                            x       y       z     vdW  Elec       q    Type
REMARK                         _______ _______ _______ _____ _____    ______ ____
ROOT
ATOM      1  C   LIG    1      -21.913  82.704  14.981  0.00  0.00    +0.149 A 
ATOM      2  N   LIG    1      -20.649  82.295  15.173  0.00  0.00    -0.160 NA
ATOM      3  N   LIG    1      -20.712  80.939  15.261  0.00  0.00    -0.218 N 
ATOM      4  C   LIG    1      -22.030  80.477  15.139  0.00  0.00    +0.129 A 
ATOM      5  C   LIG    1      -22.799  81.605  14.990  0.00  0.00    +0.078 A 
ENDROOT
BRANCH   3   6
ATOM      6  C   LIG    1      -19.520  80.197  15.500  0.00  0.00    +0.067 A 
ATOM      7  C   LIG    1      -18.342  80.434  14.784  0.00  0.00    +0.028 A 
ATOM      8  C   LIG    1      -17.218  79.622  14.976  0.00  0.00    +0.002 A 
ATOM      9  C   LIG    1      -17.257  78.584  15.904  0.00  0.00    +0.000 A 
ATOM     10  C   LIG    1      -18.405  78.380  16.665  0.00  0.00    +0.002 A 
ATOM     11  C   LIG    1      -19.527  79.193  16.478  0.00  0.00    +0.028 A 
ENDBRANCH   3   6
BRANCH   4  12
ATOM     12  N   LIG    1      -22.519  79.166  15.260  0.00  0.00    -0.266 N 
ATOM     13  H   LIG    1      -23.044  78.934  16.094  0.00  0.00    +0.157 HD
ATOM     14  C   LIG    1      -22.288  78.146  14.263  0.00  0.00    +0.251 C 
ATOM     15  O   LIG    1      -21.615  78.380  13.258  0.00  0.00    -0.270 OA
BRANCH  14  16
ATOM     16  C   LIG    1      -22.901  76.810  14.453  0.00  0.00    +0.056 A 
ATOM     17  C   LIG    1      -23.952  76.327  13.685  0.00  0.00    +0.054 A 
ATOM     18 CL   LIG    1      -24.766  77.238  12.479  0.00  0.00    -0.083 Cl
ATOM     19  C   LIG    1      -24.444  75.046  13.914  0.00  0.00    +0.041 A 
ATOM     20  C   LIG    1      -23.920  74.235  14.930  0.00  0.00    +0.052 A 
ATOM     21 CL   LIG    1      -24.717  72.709  15.099  0.00  0.00    -0.083 Cl
ATOM     22  C   LIG    1      -22.873  74.687  15.757  0.00  0.00    +0.019 A 
ATOM     23  C   LIG    1      -22.397  76.004  15.495  0.00  0.00    +0.026 A 
BRANCH  22  24
ATOM     24  C   LIG    1      -22.251  73.917  16.869  0.00  0.00    +0.073 A 
ATOM     25  N   LIG    1      -20.927  73.648  16.699  0.00  0.00    -0.252 NA
ATOM     26  C   LIG    1      -20.291  72.915  17.652  0.00  0.00    +0.149 A 
ATOM     27  C   LIG    1      -20.910  72.436  18.788  0.00  0.00    +0.141 A 
ATOM     28  F   LIG    1      -20.235  71.713  19.689  0.00  0.00    -0.204 F 
ATOM     29  C   LIG    1      -22.252  72.704  18.967  0.00  0.00    +0.042 A 
ATOM     30  C   LIG    1      -22.934  73.434  17.990  0.00  0.00    +0.031 A 
ENDBRANCH  22  24
ENDBRANCH  14  16
ENDBRANCH   4  12
BRANCH   1  32
ATOM     31  N   LIG    1      -22.007  84.668  13.657  0.00  0.00    -0.208 NA
ATOM     32  C   LIG    1      -22.293  84.107  14.785  0.00  0.00    +0.241 C 
BRANCH  31  35
ATOM     33  C   LIG    1      -20.085  86.978  14.402  0.00  0.00    +0.070 C 
ATOM     34  C   LIG    1      -21.376  87.046  13.674  0.00  0.00    +0.085 A 
ATOM     35  C   LIG    1      -22.294  86.002  13.351  0.00  0.00    +0.111 A 
ATOM     36  C   LIG    1      -23.288  86.616  12.615  0.00  0.00    +0.059 A 
ATOM     37  C   LIG    1      -24.522  86.197  11.908  0.00  0.00    +0.067 C 
ATOM     38  N   LIG    1      -22.927  87.941  12.568  0.00  0.00    -0.279 N 
ATOM     39  H   LIG    1      -23.406  88.700  12.093  0.00  0.00    +0.189 HD
ATOM     40  N   LIG    1      -21.793  88.230  13.211  0.00  0.00    -0.177 NA
ENDBRANCH  31  35
BRANCH  32  41
ATOM     41  O   LIG    1      -22.832  84.693  15.870  0.00  0.00    -0.491 OA
ATOM     42  H   LIG    1      -22.684  84.144  16.648  0.00  0.00    +0.294 HD
ENDBRANCH  32  41
ENDBRANCH   1  32
TORSDOF 7
ENDMDL
