MODEL 1
REMARK VINA RESULT:      -6.9      0.000      0.000
REMARK  Name = pdb/CHEMBL3975484.pdb
REMARK                            x       y       z     vdW  Elec       q    Type
REMARK                         _______ _______ _______ _____ _____    ______ ____
ROOT
ATOM      1  C   LIG    1      -31.821  74.097  29.613  0.00  0.00    +0.149 A 
ATOM      2  N   LIG    1      -31.692  75.401  29.318  0.00  0.00    -0.160 NA
ATOM      3  N   LIG    1      -32.820  75.737  28.642  0.00  0.00    -0.218 N 
ATOM      4  C   LIG    1      -33.589  74.609  28.339  0.00  0.00    +0.129 A 
ATOM      5  C   LIG    1      -33.013  73.581  29.052  0.00  0.00    +0.078 A 
ENDROOT
BRANCH   3   6
ATOM      6  C   LIG    1      -33.042  77.096  28.277  0.00  0.00    +0.067 A 
ATOM      7  C   LIG    1      -33.946  77.904  28.976  0.00  0.00    +0.028 A 
ATOM      8  C   LIG    1      -34.134  79.237  28.592  0.00  0.00    +0.002 A 
ATOM      9  C   LIG    1      -33.423  79.769  27.515  0.00  0.00    +0.000 A 
ATOM     10  C   LIG    1      -32.508  78.975  26.829  0.00  0.00    +0.002 A 
ATOM     11  C   LIG    1      -32.305  77.647  27.215  0.00  0.00    +0.028 A 
ENDBRANCH   3   6
BRANCH   4  12
ATOM     12  N   LIG    1      -34.646  74.500  27.417  0.00  0.00    -0.266 N 
ATOM     13  H   LIG    1      -34.408  74.351  26.444  0.00  0.00    +0.157 HD
ATOM     14  C   LIG    1      -36.032  74.464  27.820  0.00  0.00    +0.251 C 
ATOM     15  O   LIG    1      -36.356  74.610  28.981  0.00  0.00    -0.270 OA
BRANCH  14  16
ATOM     16  C   LIG    1      -37.079  74.188  26.809  0.00  0.00    +0.056 A 
ATOM     17  C   LIG    1      -37.303  72.944  26.233  0.00  0.00    +0.054 A 
ATOM     18 CL   LIG    1      -36.369  71.545  26.600  0.00  0.00    -0.083 Cl
ATOM     19  C   LIG    1      -38.315  72.804  25.283  0.00  0.00    +0.041 A 
ATOM     20  C   LIG    1      -39.082  73.905  24.870  0.00  0.00    +0.052 A 
ATOM     21 CL   LIG    1      -40.419  73.507  23.843  0.00  0.00    -0.083 Cl
ATOM     22  C   LIG    1      -38.812  75.205  25.341  0.00  0.00    +0.022 A 
ATOM     23  C   LIG    1      -37.829  75.299  26.358  0.00  0.00    +0.026 A 
BRANCH  22  24
ATOM     24  C   LIG    1      -39.459  76.453  24.853  0.00  0.00    +0.107 A 
ATOM     25  C   LIG    1      -38.872  77.345  23.950  0.00  0.00    +0.149 A 
ATOM     26  F   LIG    1      -37.615  77.190  23.514  0.00  0.00    -0.203 F 
ATOM     27  C   LIG    1      -39.566  78.471  23.521  0.00  0.00    +0.042 A 
ATOM     28  C   LIG    1      -40.812  78.743  24.063  0.00  0.00    +0.023 A 
ATOM     29  C   LIG    1      -41.307  77.871  25.016  0.00  0.00    +0.111 A 
ATOM     30  N   LIG    1      -40.672  76.736  25.411  0.00  0.00    -0.252 NA
ENDBRANCH  22  24
ENDBRANCH  14  16
ENDBRANCH   4  12
BRANCH   1  31
ATOM     31  C   LIG    1      -30.804  73.327  30.341  0.00  0.00    +0.236 C 
ATOM     32  N   LIG    1      -30.388  73.749  31.482  0.00  0.00    -0.243 NA
BRANCH  31  33
ATOM     33  O   LIG    1      -30.397  72.190  29.742  0.00  0.00    -0.491 OA
ATOM     34  H   LIG    1      -30.711  71.399  30.207  0.00  0.00    +0.294 HD
ENDBRANCH  31  33
BRANCH  32  35
ATOM     35  C   LIG    1      -29.519  72.906  32.302  0.00  0.00    +0.204 C 
BRANCH  35  36
ATOM     36  C   LIG    1      -28.098  72.960  31.861  0.00  0.00    +0.105 A 
ATOM     37  N   LIG    1      -27.598  71.988  31.084  0.00  0.00    -0.082 NA
ATOM     38  O   LIG    1      -26.260  72.309  30.906  0.00  0.00    -0.363 OA
ATOM     39  C   LIG    1      -25.980  73.462  31.562  0.00  0.00    +0.230 A 
ATOM     40  C   LIG    1      -27.112  73.922  32.181  0.00  0.00    +0.069 A 
ENDBRANCH  35  36
ENDBRANCH  32  35
ENDBRANCH   1  31
TORSDOF 8
ENDMDL
MODEL 2
REMARK VINA RESULT:      -6.7     18.519     21.313
REMARK  Name = pdb/CHEMBL3975484.pdb
REMARK                            x       y       z     vdW  Elec       q    Type
REMARK                         _______ _______ _______ _____ _____    ______ ____
ROOT
ATOM      1  C   LIG    1      -24.476  79.449  14.887  0.00  0.00    +0.149 A 
ATOM      2  N   LIG    1      -23.417  78.655  15.114  0.00  0.00    -0.160 NA
ATOM      3  N   LIG    1      -22.354  79.490  15.242  0.00  0.00    -0.218 N 
ATOM      4  C   LIG    1      -22.696  80.806  14.912  0.00  0.00    +0.129 A 
ATOM      5  C   LIG    1      -24.068  80.800  14.796  0.00  0.00    +0.078 A 
ENDROOT
BRANCH   3   6
ATOM      6  C   LIG    1      -21.082  78.959  15.599  0.00  0.00    +0.067 A 
ATOM      7  C   LIG    1      -20.200  79.664  16.428  0.00  0.00    +0.028 A 
ATOM      8  C   LIG    1      -18.960  79.107  16.763  0.00  0.00    +0.002 A 
ATOM      9  C   LIG    1      -18.596  77.851  16.278  0.00  0.00    +0.000 A 
ATOM     10  C   LIG    1      -19.476  77.137  15.470  0.00  0.00    +0.002 A 
ATOM     11  C   LIG    1      -20.722  77.680  15.142  0.00  0.00    +0.028 A 
ENDBRANCH   3   6
BRANCH   4  12
ATOM     12  N   LIG    1      -21.835  81.884  14.635  0.00  0.00    -0.266 N 
ATOM     13  H   LIG    1      -21.747  82.608  15.337  0.00  0.00    +0.157 HD
ATOM     14  C   LIG    1      -20.992  81.927  13.463  0.00  0.00    +0.251 C 
ATOM     15  O   LIG    1      -21.048  81.064  12.612  0.00  0.00    -0.270 OA
BRANCH  14  16
ATOM     16  C   LIG    1      -19.999  83.017  13.319  0.00  0.00    +0.056 A 
ATOM     17  C   LIG    1      -18.635  82.865  13.533  0.00  0.00    +0.054 A 
ATOM     18 CL   LIG    1      -17.908  81.383  14.024  0.00  0.00    -0.083 Cl
ATOM     19  C   LIG    1      -17.793  83.966  13.375  0.00  0.00    +0.041 A 
ATOM     20  C   LIG    1      -18.304  85.232  13.045  0.00  0.00    +0.052 A 
ATOM     21 CL   LIG    1      -17.100  86.425  12.691  0.00  0.00    -0.083 Cl
ATOM     22  C   LIG    1      -19.690  85.455  12.934  0.00  0.00    +0.022 A 
ATOM     23  C   LIG    1      -20.509  84.302  13.027  0.00  0.00    +0.026 A 
BRANCH  22  24
ATOM     24  C   LIG    1      -20.339  86.782  12.742  0.00  0.00    +0.107 A 
ATOM     25  C   LIG    1      -20.392  87.782  13.717  0.00  0.00    +0.149 A 
ATOM     26  F   LIG    1      -19.932  87.588  14.960  0.00  0.00    -0.203 F 
ATOM     27  C   LIG    1      -20.989  89.006  13.437  0.00  0.00    +0.042 A 
ATOM     28  C   LIG    1      -21.606  89.192  12.211  0.00  0.00    +0.023 A 
ATOM     29  C   LIG    1      -21.597  88.136  11.316  0.00  0.00    +0.111 A 
ATOM     30  N   LIG    1      -20.973  86.951  11.545  0.00  0.00    -0.252 NA
ENDBRANCH  22  24
ENDBRANCH  14  16
ENDBRANCH   4  12
BRANCH   1  31
ATOM     31  C   LIG    1      -25.838  78.941  14.679  0.00  0.00    +0.236 C 
ATOM     32  N   LIG    1      -26.244  78.689  13.486  0.00  0.00    -0.243 NA
BRANCH  31  33
ATOM     33  O   LIG    1      -26.565  78.752  15.800  0.00  0.00    -0.491 OA
ATOM     34  H   LIG    1      -26.889  77.842  15.876  0.00  0.00    +0.294 HD
ENDBRANCH  31  33
BRANCH  32  35
ATOM     35  C   LIG    1      -27.523  78.012  13.275  0.00  0.00    +0.204 C 
BRANCH  35  36
ATOM     36  C   LIG    1      -27.416  76.536  13.438  0.00  0.00    +0.105 A 
ATOM     37  N   LIG    1      -27.432  75.992  14.663  0.00  0.00    -0.082 NA
ATOM     38  O   LIG    1      -27.261  74.629  14.465  0.00  0.00    -0.363 OA
ATOM     39  C   LIG    1      -27.156  74.375  13.137  0.00  0.00    +0.230 A 
ATOM     40  C   LIG    1      -27.254  75.548  12.438  0.00  0.00    +0.069 A 
ENDBRANCH  35  36
ENDBRANCH  32  35
ENDBRANCH   1  31
TORSDOF 8
ENDMDL
MODEL 3
REMARK VINA RESULT:      -6.6      5.075      8.627
REMARK  Name = pdb/CHEMBL3975484.pdb
REMARK                            x       y       z     vdW  Elec       q    Type
REMARK                         _______ _______ _______ _____ _____    ______ ____
ROOT
ATOM      1  C   LIG    1      -37.569  75.598  26.217  0.00  0.00    +0.149 A 
ATOM      2  N   LIG    1      -38.676  75.576  25.457  0.00  0.00    -0.160 NA
ATOM      3  N   LIG    1      -38.791  74.299  25.012  0.00  0.00    -0.218 N 
ATOM      4  C   LIG    1      -37.658  73.543  25.333  0.00  0.00    +0.129 A 
ATOM      5  C   LIG    1      -36.932  74.335  26.194  0.00  0.00    +0.078 A 
ENDROOT
BRANCH   3   6
ATOM      6  C   LIG    1      -39.937  73.917  24.258  0.00  0.00    +0.067 A 
ATOM      7  C   LIG    1      -40.188  72.579  23.933  0.00  0.00    +0.028 A 
ATOM      8  C   LIG    1      -41.328  72.241  23.195  0.00  0.00    +0.002 A 
ATOM      9  C   LIG    1      -42.222  73.230  22.782  0.00  0.00    +0.000 A 
ATOM     10  C   LIG    1      -41.988  74.560  23.120  0.00  0.00    +0.002 A 
ATOM     11  C   LIG    1      -40.858  74.904  23.868  0.00  0.00    +0.028 A 
ENDBRANCH   3   6
BRANCH   4  12
ATOM     12  N   LIG    1      -37.267  72.299  24.807  0.00  0.00    -0.266 N 
ATOM     13  H   LIG    1      -36.955  72.271  23.844  0.00  0.00    +0.157 HD
ATOM     14  C   LIG    1      -37.175  71.105  25.614  0.00  0.00    +0.251 C 
ATOM     15  O   LIG    1      -37.512  71.103  26.780  0.00  0.00    -0.270 OA
BRANCH  14  16
ATOM     16  C   LIG    1      -36.605  69.869  25.028  0.00  0.00    +0.056 A 
ATOM     17  C   LIG    1      -35.368  69.339  25.371  0.00  0.00    +0.054 A 
ATOM     18 CL   LIG    1      -34.306  70.065  26.515  0.00  0.00    -0.083 Cl
ATOM     19  C   LIG    1      -34.928  68.172  24.746  0.00  0.00    +0.041 A 
ATOM     20  C   LIG    1      -35.696  67.548  23.748  0.00  0.00    +0.052 A 
ATOM     21 CL   LIG    1      -35.093  66.007  23.234  0.00  0.00    -0.083 Cl
ATOM     22  C   LIG    1      -36.900  68.115  23.289  0.00  0.00    +0.022 A 
ATOM     23  C   LIG    1      -37.352  69.258  23.995  0.00  0.00    +0.026 A 
BRANCH  22  24
ATOM     24  C   LIG    1      -37.704  67.620  22.138  0.00  0.00    +0.107 A 
ATOM     25  C   LIG    1      -37.761  68.246  20.889  0.00  0.00    +0.149 A 
ATOM     26  F   LIG    1      -37.156  69.417  20.652  0.00  0.00    -0.203 F 
ATOM     27  C   LIG    1      -38.513  67.692  19.858  0.00  0.00    +0.042 A 
ATOM     28  C   LIG    1      -39.272  66.560  20.108  0.00  0.00    +0.023 A 
ATOM     29  C   LIG    1      -39.243  66.033  21.388  0.00  0.00    +0.111 A 
ATOM     30  N   LIG    1      -38.475  66.523  22.395  0.00  0.00    -0.252 NA
ENDBRANCH  22  24
ENDBRANCH  14  16
ENDBRANCH   4  12
BRANCH   1  31
ATOM     31  C   LIG    1      -37.072  76.805  26.890  0.00  0.00    +0.236 C 
ATOM     32  N   LIG    1      -36.144  76.700  27.773  0.00  0.00    -0.243 NA
BRANCH  31  33
ATOM     33  O   LIG    1      -37.633  77.965  26.491  0.00  0.00    -0.491 OA
ATOM     34  H   LIG    1      -37.044  78.476  25.916  0.00  0.00    +0.294 HD
ENDBRANCH  31  33
BRANCH  32  35
ATOM     35  C   LIG    1      -35.510  77.900  28.316  0.00  0.00    +0.204 C 
BRANCH  35  36
ATOM     36  C   LIG    1      -34.258  78.255  27.593  0.00  0.00    +0.105 A 
ATOM     37  N   LIG    1      -34.031  79.525  27.227  0.00  0.00    -0.082 NA
ATOM     38  O   LIG    1      -32.826  79.501  26.538  0.00  0.00    -0.363 OA
ATOM     39  C   LIG    1      -32.346  78.233  26.511  0.00  0.00    +0.230 A 
ATOM     40  C   LIG    1      -33.212  77.402  27.171  0.00  0.00    +0.069 A 
ENDBRANCH  35  36
ENDBRANCH  32  35
ENDBRANCH   1  31
TORSDOF 8
ENDMDL
MODEL 4
REMARK VINA RESULT:      -6.6     10.466     13.497
REMARK  Name = pdb/CHEMBL3975484.pdb
REMARK                            x       y       z     vdW  Elec       q    Type
REMARK                         _______ _______ _______ _____ _____    ______ ____
ROOT
ATOM      1  C   LIG    1      -24.114  79.208  34.446  0.00  0.00    +0.149 A 
ATOM      2  N   LIG    1      -23.052  79.097  33.633  0.00  0.00    -0.160 NA
ATOM      3  N   LIG    1      -23.287  78.000  32.868  0.00  0.00    -0.218 N 
ATOM      4  C   LIG    1      -24.412  77.299  33.316  0.00  0.00    +0.129 A 
ATOM      5  C   LIG    1      -25.002  78.125  34.246  0.00  0.00    +0.078 A 
ENDROOT
BRANCH   3   6
ATOM      6  C   LIG    1      -22.385  77.668  31.818  0.00  0.00    +0.067 A 
ATOM      7  C   LIG    1      -22.844  77.294  30.549  0.00  0.00    +0.028 A 
ATOM      8  C   LIG    1      -21.927  76.980  29.539  0.00  0.00    +0.002 A 
ATOM      9  C   LIG    1      -20.555  77.040  29.787  0.00  0.00    +0.000 A 
ATOM     10  C   LIG    1      -20.094  77.431  31.040  0.00  0.00    +0.002 A 
ATOM     11  C   LIG    1      -21.002  77.758  32.050  0.00  0.00    +0.028 A 
ENDBRANCH   3   6
BRANCH   4  12
ATOM     12  N   LIG    1      -24.803  75.987  32.992  0.00  0.00    -0.266 N 
ATOM     13  H   LIG    1      -24.486  75.238  33.596  0.00  0.00    +0.157 HD
ATOM     14  C   LIG    1      -25.729  75.691  31.924  0.00  0.00    +0.251 C 
ATOM     15  O   LIG    1      -26.154  76.564  31.196  0.00  0.00    -0.270 OA
BRANCH  14  16
ATOM     16  C   LIG    1      -26.216  74.303  31.744  0.00  0.00    +0.056 A 
ATOM     17  C   LIG    1      -27.470  73.856  32.140  0.00  0.00    +0.054 A 
ATOM     18 CL   LIG    1      -28.631  74.856  32.926  0.00  0.00    -0.083 Cl
ATOM     19  C   LIG    1      -27.818  72.522  31.927  0.00  0.00    +0.041 A 
ATOM     20  C   LIG    1      -26.909  71.615  31.357  0.00  0.00    +0.052 A 
ATOM     21 CL   LIG    1      -27.580  70.063  30.982  0.00  0.00    -0.083 Cl
ATOM     22  C   LIG    1      -25.589  71.998  31.048  0.00  0.00    +0.022 A 
ATOM     23  C   LIG    1      -25.294  73.375  31.209  0.00  0.00    +0.026 A 
BRANCH  22  24
ATOM     24  C   LIG    1      -24.509  71.082  30.589  0.00  0.00    +0.107 A 
ATOM     25  C   LIG    1      -23.450  70.647  31.392  0.00  0.00    +0.149 A 
ATOM     26  F   LIG    1      -23.269  71.102  32.638  0.00  0.00    -0.203 F 
ATOM     27  C   LIG    1      -22.504  69.761  30.888  0.00  0.00    +0.042 A 
ATOM     28  C   LIG    1      -22.574  69.382  29.557  0.00  0.00    +0.023 A 
ATOM     29  C   LIG    1      -23.595  69.912  28.787  0.00  0.00    +0.111 A 
ATOM     30  N   LIG    1      -24.563  70.734  29.270  0.00  0.00    -0.252 NA
ENDBRANCH  22  24
ENDBRANCH  14  16
ENDBRANCH   4  12
BRANCH   1  31
ATOM     31  C   LIG    1      -24.258  80.270  35.451  0.00  0.00    +0.236 C 
ATOM     32  N   LIG    1      -25.305  80.298  36.195  0.00  0.00    -0.243 NA
BRANCH  31  33
ATOM     33  O   LIG    1      -23.231  81.141  35.526  0.00  0.00    -0.491 OA
ATOM     34  H   LIG    1      -22.863  81.194  36.421  0.00  0.00    +0.294 HD
ENDBRANCH  31  33
BRANCH  32  35
ATOM     35  C   LIG    1      -25.380  81.230  37.319  0.00  0.00    +0.204 C 
BRANCH  35  36
ATOM     36  C   LIG    1      -26.047  82.509  36.950  0.00  0.00    +0.105 A 
ATOM     37  N   LIG    1      -25.342  83.490  36.368  0.00  0.00    -0.082 NA
ATOM     38  O   LIG    1      -26.234  84.542  36.211  0.00  0.00    -0.363 OA
ATOM     39  C   LIG    1      -27.451  84.178  36.686  0.00  0.00    +0.230 A 
ATOM     40  C   LIG    1      -27.391  82.895  37.161  0.00  0.00    +0.069 A 
ENDBRANCH  35  36
ENDBRANCH  32  35
ENDBRANCH   1  31
TORSDOF 8
ENDMDL
MODEL 5
REMARK VINA RESULT:      -6.6      7.025     13.754
REMARK  Name = pdb/CHEMBL3975484.pdb
REMARK                            x       y       z     vdW  Elec       q    Type
REMARK                         _______ _______ _______ _____ _____    ______ ____
ROOT
ATOM      1  C   LIG    1      -29.779  75.983  31.287  0.00  0.00    +0.149 A 
ATOM      2  N   LIG    1      -29.263  74.748  31.394  0.00  0.00    -0.160 NA
ATOM      3  N   LIG    1      -28.092  74.897  32.065  0.00  0.00    -0.218 N 
ATOM      4  C   LIG    1      -27.764  76.247  32.225  0.00  0.00    +0.129 A 
ATOM      5  C   LIG    1      -28.889  76.938  31.832  0.00  0.00    +0.078 A 
ENDROOT
BRANCH   3   6
ATOM      6  C   LIG    1      -27.343  73.745  32.437  0.00  0.00    +0.067 A 
ATOM      7  C   LIG    1      -27.643  73.020  33.597  0.00  0.00    +0.028 A 
ATOM      8  C   LIG    1      -26.889  71.888  33.928  0.00  0.00    +0.002 A 
ATOM      9  C   LIG    1      -25.839  71.474  33.108  0.00  0.00    +0.000 A 
ATOM     10  C   LIG    1      -25.549  72.179  31.944  0.00  0.00    +0.002 A 
ATOM     11  C   LIG    1      -26.306  73.303  31.599  0.00  0.00    +0.028 A 
ENDBRANCH   3   6
BRANCH   4  12
ATOM     12  N   LIG    1      -26.524  76.804  32.589  0.00  0.00    -0.266 N 
ATOM     13  H   LIG    1      -26.347  76.953  33.575  0.00  0.00    +0.157 HD
ATOM     14  C   LIG    1      -25.467  77.044  31.635  0.00  0.00    +0.251 C 
ATOM     15  O   LIG    1      -25.631  76.850  30.448  0.00  0.00    -0.270 OA
BRANCH  14  16
ATOM     16  C   LIG    1      -24.136  77.483  32.116  0.00  0.00    +0.056 A 
ATOM     17  C   LIG    1      -22.931  77.101  31.541  0.00  0.00    +0.054 A 
ATOM     18 CL   LIG    1      -22.817  76.034  30.193  0.00  0.00    -0.083 Cl
ATOM     19  C   LIG    1      -21.736  77.571  32.084  0.00  0.00    +0.041 A 
ATOM     20  C   LIG    1      -21.728  78.388  33.226  0.00  0.00    +0.052 A 
ATOM     21 CL   LIG    1      -20.176  79.040  33.635  0.00  0.00    -0.083 Cl
ATOM     22  C   LIG    1      -22.918  78.704  33.909  0.00  0.00    +0.022 A 
ATOM     23  C   LIG    1      -24.117  78.272  33.288  0.00  0.00    +0.026 A 
BRANCH  22  24
ATOM     24  C   LIG    1      -23.004  79.429  35.207  0.00  0.00    +0.107 A 
ATOM     25  C   LIG    1      -22.519  78.932  36.420  0.00  0.00    +0.149 A 
ATOM     26  F   LIG    1      -22.010  77.699  36.531  0.00  0.00    -0.203 F 
ATOM     27  C   LIG    1      -22.611  79.695  37.580  0.00  0.00    +0.042 A 
ATOM     28  C   LIG    1      -23.264  80.916  37.535  0.00  0.00    +0.023 A 
ATOM     29  C   LIG    1      -23.800  81.319  36.323  0.00  0.00    +0.111 A 
ATOM     30  N   LIG    1      -23.675  80.617  35.167  0.00  0.00    -0.252 NA
ENDBRANCH  22  24
ENDBRANCH  14  16
ENDBRANCH   4  12
BRANCH   1  31
ATOM     31  C   LIG    1      -31.052  76.273  30.613  0.00  0.00    +0.236 C 
ATOM     32  N   LIG    1      -31.163  76.057  29.351  0.00  0.00    -0.243 NA
BRANCH  31  33
ATOM     33  O   LIG    1      -32.039  76.733  31.409  0.00  0.00    -0.491 OA
ATOM     34  H   LIG    1      -32.420  77.560  31.076  0.00  0.00    +0.294 HD
ENDBRANCH  31  33
BRANCH  32  35
ATOM     35  C   LIG    1      -32.468  76.163  28.702  0.00  0.00    +0.204 C 
BRANCH  35  36
ATOM     36  C   LIG    1      -32.550  77.331  27.783  0.00  0.00    +0.105 A 
ATOM     37  N   LIG    1      -32.155  77.211  26.506  0.00  0.00    -0.082 NA
ATOM     38  O   LIG    1      -32.307  78.475  25.952  0.00  0.00    -0.363 OA
ATOM     39  C   LIG    1      -32.797  79.323  26.890  0.00  0.00    +0.230 A 
ATOM     40  C   LIG    1      -32.975  78.649  28.069  0.00  0.00    +0.069 A 
ENDBRANCH  35  36
ENDBRANCH  32  35
ENDBRANCH   1  31
TORSDOF 8
ENDMDL
MODEL 6
REMARK VINA RESULT:      -6.5     10.655     13.752
REMARK  Name = pdb/CHEMBL3975484.pdb
REMARK                            x       y       z     vdW  Elec       q    Type
REMARK                         _______ _______ _______ _____ _____    ______ ____
ROOT
ATOM      1  C   LIG    1      -24.137  78.829  34.205  0.00  0.00    +0.149 A 
ATOM      2  N   LIG    1      -23.038  78.793  33.437  0.00  0.00    -0.160 NA
ATOM      3  N   LIG    1      -23.167  77.684  32.663  0.00  0.00    -0.218 N 
ATOM      4  C   LIG    1      -24.258  76.907  33.064  0.00  0.00    +0.129 A 
ATOM      5  C   LIG    1      -24.941  77.688  33.970  0.00  0.00    +0.078 A 
ENDROOT
BRANCH   3   6
ATOM      6  C   LIG    1      -22.202  77.418  31.649  0.00  0.00    +0.067 A 
ATOM      7  C   LIG    1      -22.581  76.978  30.375  0.00  0.00    +0.028 A 
ATOM      8  C   LIG    1      -21.605  76.731  29.403  0.00  0.00    +0.002 A 
ATOM      9  C   LIG    1      -20.254  76.924  29.693  0.00  0.00    +0.000 A 
ATOM     10  C   LIG    1      -19.873  77.380  30.952  0.00  0.00    +0.002 A 
ATOM     11  C   LIG    1      -20.843  77.641  31.924  0.00  0.00    +0.028 A 
ENDBRANCH   3   6
BRANCH   4  12
ATOM     12  N   LIG    1      -24.546  75.573  32.724  0.00  0.00    -0.266 N 
ATOM     13  H   LIG    1      -24.160  74.843  33.310  0.00  0.00    +0.157 HD
ATOM     14  C   LIG    1      -25.461  75.218  31.663  0.00  0.00    +0.251 C 
ATOM     15  O   LIG    1      -25.966  76.065  30.956  0.00  0.00    -0.270 OA
BRANCH  14  16
ATOM     16  C   LIG    1      -25.835  73.798  31.467  0.00  0.00    +0.056 A 
ATOM     17  C   LIG    1      -27.046  73.247  31.864  0.00  0.00    +0.054 A 
ATOM     18 CL   LIG    1      -28.280  74.139  32.669  0.00  0.00    -0.083 Cl
ATOM     19  C   LIG    1      -27.287  71.892  31.634  0.00  0.00    +0.041 A 
ATOM     20  C   LIG    1      -26.312  71.069  31.047  0.00  0.00    +0.052 A 
ATOM     21 CL   LIG    1      -26.858  69.473  30.654  0.00  0.00    -0.083 Cl
ATOM     22  C   LIG    1      -25.029  71.560  30.737  0.00  0.00    +0.022 A 
ATOM     23  C   LIG    1      -24.845  72.955  30.914  0.00  0.00    +0.026 A 
BRANCH  22  24
ATOM     24  C   LIG    1      -23.882  70.740  30.260  0.00  0.00    +0.107 A 
ATOM     25  C   LIG    1      -23.810  70.145  28.997  0.00  0.00    +0.149 A 
ATOM     26  F   LIG    1      -24.829  70.190  28.130  0.00  0.00    -0.203 F 
ATOM     27  C   LIG    1      -22.680  69.424  28.623  0.00  0.00    +0.042 A 
ATOM     28  C   LIG    1      -21.666  69.231  29.546  0.00  0.00    +0.023 A 
ATOM     29  C   LIG    1      -21.830  69.772  30.810  0.00  0.00    +0.111 A 
ATOM     30  N   LIG    1      -22.898  70.526  31.181  0.00  0.00    -0.252 NA
ENDBRANCH  22  24
ENDBRANCH  14  16
ENDBRANCH   4  12
BRANCH   1  31
ATOM     31  C   LIG    1      -24.393  79.875  35.204  0.00  0.00    +0.236 C 
ATOM     32  N   LIG    1      -23.479  80.739  35.463  0.00  0.00    -0.243 NA
BRANCH  31  33
ATOM     33  O   LIG    1      -25.619  79.853  35.766  0.00  0.00    -0.491 OA
ATOM     34  H   LIG    1      -25.631  80.287  36.633  0.00  0.00    +0.294 HD
ENDBRANCH  31  33
BRANCH  32  35
ATOM     35  C   LIG    1      -23.778  81.891  36.312  0.00  0.00    +0.204 C 
BRANCH  35  36
ATOM     36  C   LIG    1      -22.563  82.433  36.981  0.00  0.00    +0.105 A 
ATOM     37  N   LIG    1      -22.680  83.150  38.108  0.00  0.00    -0.082 NA
ATOM     38  O   LIG    1      -21.388  83.542  38.432  0.00  0.00    -0.363 OA
ATOM     39  C   LIG    1      -20.522  83.050  37.511  0.00  0.00    +0.230 A 
ATOM     40  C   LIG    1      -21.213  82.334  36.570  0.00  0.00    +0.069 A 
ENDBRANCH  35  36
ENDBRANCH  32  35
ENDBRANCH   1  31
TORSDOF 8
ENDMDL
MODEL 7
REMARK VINA RESULT:      -6.5      9.216     14.916
REMARK  Name = pdb/CHEMBL3975484.pdb
REMARK                            x       y       z     vdW  Elec       q    Type
REMARK                         _______ _______ _______ _____ _____    ______ ____
ROOT
ATOM      1  C   LIG    1      -26.653  76.338  31.993  0.00  0.00    +0.149 A 
ATOM      2  N   LIG    1      -25.621  76.035  31.191  0.00  0.00    -0.160 NA
ATOM      3  N   LIG    1      -24.552  76.698  31.702  0.00  0.00    -0.218 N 
ATOM      4  C   LIG    1      -24.936  77.575  32.722  0.00  0.00    +0.129 A 
ATOM      5  C   LIG    1      -26.252  77.264  32.984  0.00  0.00    +0.078 A 
ENDROOT
BRANCH   3   6
ATOM      6  C   LIG    1      -23.262  76.498  31.134  0.00  0.00    +0.067 A 
ATOM      7  C   LIG    1      -22.927  77.015  29.877  0.00  0.00    +0.028 A 
ATOM      8  C   LIG    1      -21.647  76.802  29.352  0.00  0.00    +0.002 A 
ATOM      9  C   LIG    1      -20.698  76.079  30.075  0.00  0.00    +0.000 A 
ATOM     10  C   LIG    1      -21.019  75.580  31.334  0.00  0.00    +0.002 A 
ATOM     11  C   LIG    1      -22.291  75.799  31.871  0.00  0.00    +0.028 A 
ENDBRANCH   3   6
BRANCH   4  12
ATOM     12  N   LIG    1      -24.196  78.630  33.286  0.00  0.00    -0.266 N 
ATOM     13  H   LIG    1      -24.361  79.563  32.930  0.00  0.00    +0.157 HD
ATOM     14  C   LIG    1      -23.320  78.449  34.420  0.00  0.00    +0.251 C 
ATOM     15  O   LIG    1      -23.118  77.351  34.895  0.00  0.00    -0.270 OA
BRANCH  14  16
ATOM     16  C   LIG    1      -22.697  79.633  35.057  0.00  0.00    +0.056 A 
ATOM     17  C   LIG    1      -21.329  79.867  35.105  0.00  0.00    +0.054 A 
ATOM     18 CL   LIG    1      -20.157  78.789  34.448  0.00  0.00    -0.083 Cl
ATOM     19  C   LIG    1      -20.854  81.015  35.739  0.00  0.00    +0.041 A 
ATOM     20  C   LIG    1      -21.731  81.916  36.365  0.00  0.00    +0.052 A 
ATOM     21 CL   LIG    1      -20.987  83.378  36.919  0.00  0.00    -0.083 Cl
ATOM     22  C   LIG    1      -23.114  81.658  36.441  0.00  0.00    +0.022 A 
ATOM     23  C   LIG    1      -23.569  80.524  35.724  0.00  0.00    +0.026 A 
BRANCH  22  24
ATOM     24  C   LIG    1      -24.102  82.464  37.210  0.00  0.00    +0.107 A 
ATOM     25  C   LIG    1      -23.996  82.748  38.575  0.00  0.00    +0.149 A 
ATOM     26  F   LIG    1      -23.024  82.228  39.336  0.00  0.00    -0.203 F 
ATOM     27  C   LIG    1      -24.950  83.540  39.204  0.00  0.00    +0.042 A 
ATOM     28  C   LIG    1      -26.050  83.975  38.483  0.00  0.00    +0.023 A 
ATOM     29  C   LIG    1      -26.145  83.592  37.156  0.00  0.00    +0.111 A 
ATOM     30  N   LIG    1      -25.200  82.865  36.505  0.00  0.00    -0.252 NA
ENDBRANCH  22  24
ENDBRANCH  14  16
ENDBRANCH   4  12
BRANCH   1  31
ATOM     31  C   LIG    1      -28.016  75.828  31.787  0.00  0.00    +0.236 C 
ATOM     32  N   LIG    1      -28.339  74.678  32.261  0.00  0.00    -0.243 NA
BRANCH  31  33
ATOM     33  O   LIG    1      -28.848  76.651  31.117  0.00  0.00    -0.491 OA
ATOM     34  H   LIG    1      -28.788  76.529  30.157  0.00  0.00    +0.294 HD
ENDBRANCH  31  33
BRANCH  32  35
ATOM     35  C   LIG    1      -29.733  74.238  32.227  0.00  0.00    +0.204 C 
BRANCH  35  36
ATOM     36  C   LIG    1      -29.974  73.199  31.189  0.00  0.00    +0.105 A 
ATOM     37  N   LIG    1      -29.072  72.225  30.991  0.00  0.00    -0.082 NA
ATOM     38  O   LIG    1      -29.568  71.472  29.935  0.00  0.00    -0.363 OA
ATOM     39  C   LIG    1      -30.752  71.991  29.526  0.00  0.00    +0.230 A 
ATOM     40  C   LIG    1      -31.061  73.085  30.291  0.00  0.00    +0.069 A 
ENDBRANCH  35  36
ENDBRANCH  32  35
ENDBRANCH   1  31
TORSDOF 8
ENDMDL
MODEL 8
REMARK VINA RESULT:      -6.4      5.223     10.460
REMARK  Name = pdb/CHEMBL3975484.pdb
REMARK                            x       y       z     vdW  Elec       q    Type
REMARK                         _______ _______ _______ _____ _____    ______ ____
ROOT
ATOM      1  C   LIG    1      -33.807  73.452  28.386  0.00  0.00    +0.149 A 
ATOM      2  N   LIG    1      -34.152  74.696  28.019  0.00  0.00    -0.160 NA
ATOM      3  N   LIG    1      -33.116  75.490  28.394  0.00  0.00    -0.218 N 
ATOM      4  C   LIG    1      -32.189  74.786  29.169  0.00  0.00    +0.129 A 
ATOM      5  C   LIG    1      -32.569  73.466  29.070  0.00  0.00    +0.078 A 
ENDROOT
BRANCH   3   6
ATOM      6  C   LIG    1      -33.126  76.871  28.045  0.00  0.00    +0.067 A 
ATOM      7  C   LIG    1      -33.829  77.813  28.805  0.00  0.00    +0.028 A 
ATOM      8  C   LIG    1      -33.811  79.163  28.435  0.00  0.00    +0.002 A 
ATOM      9  C   LIG    1      -33.094  79.578  27.313  0.00  0.00    +0.000 A 
ATOM     10  C   LIG    1      -32.377  78.648  26.565  0.00  0.00    +0.002 A 
ATOM     11  C   LIG    1      -32.379  77.301  26.936  0.00  0.00    +0.028 A 
ENDBRANCH   3   6
BRANCH   4  12
ATOM     12  N   LIG    1      -31.161  75.304  29.978  0.00  0.00    -0.266 N 
ATOM     13  H   LIG    1      -30.508  75.950  29.553  0.00  0.00    +0.157 HD
ATOM     14  C   LIG    1      -31.084  75.051  31.398  0.00  0.00    +0.251 C 
ATOM     15  O   LIG    1      -31.866  74.304  31.950  0.00  0.00    -0.270 OA
BRANCH  14  16
ATOM     16  C   LIG    1      -30.067  75.757  32.211  0.00  0.00    +0.056 A 
ATOM     17  C   LIG    1      -30.349  76.479  33.363  0.00  0.00    +0.054 A 
ATOM     18 CL   LIG    1      -31.938  76.675  33.997  0.00  0.00    -0.083 Cl
ATOM     19  C   LIG    1      -29.309  77.111  34.045  0.00  0.00    +0.041 A 
ATOM     20  C   LIG    1      -27.990  77.065  33.564  0.00  0.00    +0.052 A 
ATOM     21 CL   LIG    1      -26.807  77.729  34.641  0.00  0.00    -0.083 Cl
ATOM     22  C   LIG    1      -27.679  76.444  32.339  0.00  0.00    +0.022 A 
ATOM     23  C   LIG    1      -28.744  75.750  31.712  0.00  0.00    +0.026 A 
BRANCH  22  24
ATOM     24  C   LIG    1      -26.350  76.473  31.669  0.00  0.00    +0.107 A 
ATOM     25  C   LIG    1      -25.436  75.415  31.682  0.00  0.00    +0.149 A 
ATOM     26  F   LIG    1      -25.651  74.300  32.393  0.00  0.00    -0.203 F 
ATOM     27  C   LIG    1      -24.230  75.518  30.997  0.00  0.00    +0.042 A 
ATOM     28  C   LIG    1      -23.908  76.712  30.373  0.00  0.00    +0.023 A 
ATOM     29  C   LIG    1      -24.814  77.755  30.464  0.00  0.00    +0.111 A 
ATOM     30  N   LIG    1      -26.021  77.660  31.081  0.00  0.00    -0.252 NA
ENDBRANCH  22  24
ENDBRANCH  14  16
ENDBRANCH   4  12
BRANCH   1  31
ATOM     31  C   LIG    1      -34.662  72.277  28.170  0.00  0.00    +0.236 C 
ATOM     32  N   LIG    1      -34.543  71.600  27.085  0.00  0.00    -0.243 NA
BRANCH  31  33
ATOM     33  O   LIG    1      -35.512  71.985  29.176  0.00  0.00    -0.491 OA
ATOM     34  H   LIG    1      -35.065  71.547  29.916  0.00  0.00    +0.294 HD
ENDBRANCH  31  33
BRANCH  32  35
ATOM     35  C   LIG    1      -35.250  70.328  26.933  0.00  0.00    +0.204 C 
BRANCH  35  36
ATOM     36  C   LIG    1      -36.052  70.273  25.681  0.00  0.00    +0.105 A 
ATOM     37  N   LIG    1      -35.701  69.434  24.694  0.00  0.00    -0.082 NA
ATOM     38  O   LIG    1      -36.608  69.669  23.670  0.00  0.00    -0.363 OA
ATOM     39  C   LIG    1      -37.488  70.627  24.055  0.00  0.00    +0.230 A 
ATOM     40  C   LIG    1      -37.186  71.041  25.325  0.00  0.00    +0.069 A 
ENDBRANCH  35  36
ENDBRANCH  32  35
ENDBRANCH   1  31
TORSDOF 8
ENDMDL
MODEL 9
REMARK VINA RESULT:      -6.3      5.320      8.718
REMARK  Name = pdb/CHEMBL3975484.pdb
REMARK                            x       y       z     vdW  Elec       q    Type
REMARK                         _______ _______ _______ _____ _____    ______ ____
ROOT
ATOM      1  C   LIG    1      -38.120  77.065  25.980  0.00  0.00    +0.149 A 
ATOM      2  N   LIG    1      -38.412  75.758  25.883  0.00  0.00    -0.160 NA
ATOM      3  N   LIG    1      -39.280  75.652  24.844  0.00  0.00    -0.218 N 
ATOM      4  C   LIG    1      -39.691  76.911  24.393  0.00  0.00    +0.129 A 
ATOM      5  C   LIG    1      -38.870  77.808  25.039  0.00  0.00    +0.078 A 
ENDROOT
BRANCH   3   6
ATOM      6  C   LIG    1      -39.703  74.364  24.410  0.00  0.00    +0.067 A 
ATOM      7  C   LIG    1      -38.924  73.223  24.634  0.00  0.00    +0.028 A 
ATOM      8  C   LIG    1      -39.375  71.971  24.197  0.00  0.00    +0.002 A 
ATOM      9  C   LIG    1      -40.600  71.852  23.541  0.00  0.00    +0.000 A 
ATOM     10  C   LIG    1      -41.388  72.980  23.333  0.00  0.00    +0.002 A 
ATOM     11  C   LIG    1      -40.951  74.231  23.778  0.00  0.00    +0.028 A 
ENDBRANCH   3   6
BRANCH   4  12
ATOM     12  N   LIG    1      -40.781  77.222  23.559  0.00  0.00    -0.266 N 
ATOM     13  H   LIG    1      -40.633  77.183  22.558  0.00  0.00    +0.157 HD
ATOM     14  C   LIG    1      -42.109  77.464  24.070  0.00  0.00    +0.251 C 
ATOM     15  O   LIG    1      -42.333  77.492  25.263  0.00  0.00    -0.270 OA
BRANCH  14  16
ATOM     16  C   LIG    1      -43.237  77.629  23.123  0.00  0.00    +0.056 A 
ATOM     17  C   LIG    1      -43.925  78.819  22.925  0.00  0.00    +0.054 A 
ATOM     18 CL   LIG    1      -43.577  80.272  23.781  0.00  0.00    -0.083 Cl
ATOM     19  C   LIG    1      -44.978  78.855  22.011  0.00  0.00    +0.041 A 
ATOM     20  C   LIG    1      -45.379  77.701  21.318  0.00  0.00    +0.052 A 
ATOM     21 CL   LIG    1      -46.560  77.977  20.081  0.00  0.00    -0.083 Cl
ATOM     22  C   LIG    1      -44.786  76.449  21.574  0.00  0.00    +0.022 A 
ATOM     23  C   LIG    1      -43.673  76.464  22.452  0.00  0.00    +0.026 A 
BRANCH  22  24
ATOM     24  C   LIG    1      -45.239  75.147  21.012  0.00  0.00    +0.107 A 
ATOM     25  C   LIG    1      -44.930  74.694  19.726  0.00  0.00    +0.149 A 
ATOM     26  F   LIG    1      -44.264  75.451  18.846  0.00  0.00    -0.203 F 
ATOM     27  C   LIG    1      -45.367  73.445  19.297  0.00  0.00    +0.042 A 
ATOM     28  C   LIG    1      -46.183  72.693  20.127  0.00  0.00    +0.023 A 
ATOM     29  C   LIG    1      -46.527  73.231  21.355  0.00  0.00    +0.111 A 
ATOM     30  N   LIG    1      -46.068  74.423  21.819  0.00  0.00    -0.252 NA
ENDBRANCH  22  24
ENDBRANCH  14  16
ENDBRANCH   4  12
BRANCH   1  31
ATOM     31  C   LIG    1      -37.213  77.618  26.994  0.00  0.00    +0.236 C 
ATOM     32  N   LIG    1      -36.269  76.885  27.466  0.00  0.00    -0.243 NA
BRANCH  31  33
ATOM     33  O   LIG    1      -37.438  78.903  27.336  0.00  0.00    -0.491 OA
ATOM     34  H   LIG    1      -37.513  79.480  26.560  0.00  0.00    +0.294 HD
ENDBRANCH  31  33
BRANCH  32  35
ATOM     35  C   LIG    1      -35.248  77.472  28.333  0.00  0.00    +0.204 C 
BRANCH  35  36
ATOM     36  C   LIG    1      -34.049  77.918  27.572  0.00  0.00    +0.105 A 
ATOM     37  N   LIG    1      -33.909  79.209  27.235  0.00  0.00    -0.082 NA
ATOM     38  O   LIG    1      -32.734  79.274  26.499  0.00  0.00    -0.363 OA
ATOM     39  C   LIG    1      -32.185  78.037  26.415  0.00  0.00    +0.230 A 
ATOM     40  C   LIG    1      -32.975  77.139  27.083  0.00  0.00    +0.069 A 
ENDBRANCH  35  36
ENDBRANCH  32  35
ENDBRANCH   1  31
TORSDOF 8
ENDMDL
