MODEL 1
REMARK VINA RESULT:      -7.5      0.000      0.000
REMARK  Name = pdb/CHEMBL3954827.pdb
REMARK                            x       y       z     vdW  Elec       q    Type
REMARK                         _______ _______ _______ _____ _____    ______ ____
ROOT
ATOM      1  C   LIG    1      -37.285  67.054  20.413  0.00  0.00    +0.323 A 
ATOM      2  N   LIG    1      -37.406  68.332  20.021  0.00  0.00    -0.201 NA
ATOM      3  C   LIG    1      -38.043  69.150  20.885  0.00  0.00    +0.145 A 
ATOM      4  C   LIG    1      -38.570  68.758  22.102  0.00  0.00    +0.105 A 
ATOM      5  C   LIG    1      -38.415  67.420  22.385  0.00  0.00    +0.145 A 
ATOM      6  N   LIG    1      -37.820  66.557  21.543  0.00  0.00    -0.201 NA
ENDROOT
BRANCH   4   7
ATOM      7  N   LIG    1      -39.139  69.662  22.987  0.00  0.00    -0.196 NA
ATOM      8  C   LIG    1      -38.416  70.468  23.713  0.00  0.00    +0.285 C 
BRANCH   8   9
ATOM      9  N   LIG    1      -38.828  71.373  24.632  0.00  0.00    -0.269 N 
ATOM     10  H   LIG    1      -39.216  70.918  25.452  0.00  0.00    +0.157 HD
BRANCH   9  11
ATOM     11  C   LIG    1      -39.332  72.681  24.392  0.00  0.00    +0.043 A 
ATOM     12  C   LIG    1      -40.642  72.986  23.916  0.00  0.00    +0.003 A 
ATOM     13  C   LIG    1      -40.982  74.365  23.863  0.00  0.00    +0.011 A 
ATOM     14  C   LIG    1      -40.100  75.394  24.208  0.00  0.00    +0.013 A 
ATOM     15  C   LIG    1      -38.807  75.102  24.623  0.00  0.00    +0.057 A 
ATOM     16  C   LIG    1      -38.442  73.749  24.721  0.00  0.00    +0.036 A 
BRANCH  12  17
ATOM     17  C   LIG    1      -41.644  71.999  23.367  0.00  0.00    -0.016 A 
ATOM     18  C   LIG    1      -41.998  71.952  22.006  0.00  0.00    +0.008 A 
ATOM     19  C   LIG    1      -42.905  71.006  21.501  0.00  0.00    +0.001 A 
ATOM     20  C   LIG    1      -43.595  70.164  22.362  0.00  0.00    +0.000 A 
ATOM     21  C   LIG    1      -43.346  70.244  23.724  0.00  0.00    +0.001 A 
ATOM     22  C   LIG    1      -42.355  71.110  24.208  0.00  0.00    +0.008 A 
ENDBRANCH  12  17
BRANCH  15  23
ATOM     23  C   LIG    1      -37.858  76.232  24.949  0.00  0.00    +0.417 C 
ATOM     24  F   LIG    1      -38.428  77.176  25.748  0.00  0.00    -0.166 F 
ATOM     25  F   LIG    1      -37.435  76.896  23.836  0.00  0.00    -0.166 F 
ATOM     26  F   LIG    1      -36.727  75.829  25.593  0.00  0.00    -0.166 F 
ENDBRANCH  15  23
ENDBRANCH   9  11
ENDBRANCH   8   9
BRANCH   8  27
ATOM     27  O   LIG    1      -37.069  70.469  23.661  0.00  0.00    -0.481 OA
ATOM     28  H   LIG    1      -36.661  70.271  24.517  0.00  0.00    +0.295 HD
ENDBRANCH   8  27
ENDBRANCH   4   7
BRANCH   1  29
ATOM     29  O   LIG    1      -36.554  66.241  19.554  0.00  0.00    -0.424 OA
BRANCH  29  33
ATOM     30  C   LIG    1      -32.396  66.583  19.158  0.00  0.00    -0.013 A 
ATOM     31  C   LIG    1      -32.947  66.446  20.431  0.00  0.00    +0.012 A 
ATOM     32  C   LIG    1      -34.324  66.337  20.596  0.00  0.00    +0.047 A 
ATOM     33  C   LIG    1      -35.183  66.337  19.496  0.00  0.00    +0.132 A 
ATOM     34  C   LIG    1      -34.640  66.503  18.220  0.00  0.00    +0.047 A 
ATOM     35  C   LIG    1      -33.255  66.617  18.051  0.00  0.00    +0.012 A 
BRANCH  30  39
ATOM     36  C   LIG    1      -29.742  70.021  18.139  0.00  0.00    +0.125 A 
ATOM     37  N   LIG    1      -30.660  69.121  18.411  0.00  0.00    -0.213 NA
ATOM     38  C   LIG    1      -30.260  67.837  18.690  0.00  0.00    +0.165 A 
ATOM     39  C   LIG    1      -30.958  66.690  19.028  0.00  0.00    +0.046 A 
ATOM     40  C   LIG    1      -29.968  65.686  19.135  0.00  0.00    +0.145 A 
ATOM     41  N   LIG    1      -28.738  66.142  18.907  0.00  0.00    -0.173 NA
ATOM     42  N   LIG    1      -28.918  67.459  18.641  0.00  0.00    -0.221 N 
ATOM     43  C   LIG    1      -27.941  68.392  18.341  0.00  0.00    +0.118 A 
ATOM     44  C   LIG    1      -28.274  69.665  18.100  0.00  0.00    +0.063 A 
BRANCH  36  46
ATOM     45  C   LIG    1      -31.545  71.675  17.851  0.00  0.00    +0.130 C 
ATOM     46  N   LIG    1      -30.124  71.329  17.838  0.00  0.00    -0.321 N 
ATOM     47  C   LIG    1      -29.225  72.434  18.153  0.00  0.00    +0.130 C 
ENDBRANCH  36  46
ENDBRANCH  30  39
ENDBRANCH  29  33
ENDBRANCH   1  29
TORSDOF 10
ENDMDL
MODEL 2
REMARK VINA RESULT:      -7.4     17.199     20.865
REMARK  Name = pdb/CHEMBL3954827.pdb
REMARK                            x       y       z     vdW  Elec       q    Type
REMARK                         _______ _______ _______ _____ _____    ______ ____
ROOT
ATOM      1  C   LIG    1      -25.971  81.554  36.989  0.00  0.00    +0.323 A 
ATOM      2  N   LIG    1      -27.276  81.339  37.217  0.00  0.00    -0.201 NA
ATOM      3  C   LIG    1      -28.069  82.427  37.143  0.00  0.00    +0.145 A 
ATOM      4  C   LIG    1      -27.630  83.709  36.868  0.00  0.00    +0.105 A 
ATOM      5  C   LIG    1      -26.269  83.817  36.682  0.00  0.00    +0.145 A 
ATOM      6  N   LIG    1      -25.432  82.770  36.781  0.00  0.00    -0.201 NA
ENDROOT
BRANCH   4   7
ATOM      7  N   LIG    1      -28.504  84.776  36.719  0.00  0.00    -0.196 NA
ATOM      8  C   LIG    1      -28.977  85.126  35.556  0.00  0.00    +0.285 C 
BRANCH   8   9
ATOM      9  N   LIG    1      -29.807  86.154  35.259  0.00  0.00    -0.269 N 
ATOM     10  H   LIG    1      -30.665  86.105  35.799  0.00  0.00    +0.157 HD
BRANCH   9  11
ATOM     11  C   LIG    1      -29.933  86.831  34.015  0.00  0.00    +0.043 A 
ATOM     12  C   LIG    1      -29.190  87.985  33.625  0.00  0.00    +0.003 A 
ATOM     13  C   LIG    1      -29.383  88.430  32.289  0.00  0.00    +0.011 A 
ATOM     14  C   LIG    1      -30.269  87.826  31.392  0.00  0.00    +0.013 A 
ATOM     15  C   LIG    1      -31.031  86.734  31.785  0.00  0.00    +0.057 A 
ATOM     16  C   LIG    1      -30.846  86.242  33.088  0.00  0.00    +0.036 A 
BRANCH  12  17
ATOM     17  C   LIG    1      -28.317  88.829  34.522  0.00  0.00    -0.016 A 
ATOM     18  C   LIG    1      -27.216  88.306  35.224  0.00  0.00    +0.008 A 
ATOM     19  C   LIG    1      -26.390  89.110  36.027  0.00  0.00    +0.001 A 
ATOM     20  C   LIG    1      -26.718  90.436  36.267  0.00  0.00    +0.000 A 
ATOM     21  C   LIG    1      -27.852  90.967  35.670  0.00  0.00    +0.001 A 
ATOM     22  C   LIG    1      -28.606  90.191  34.778  0.00  0.00    +0.008 A 
ENDBRANCH  12  17
BRANCH  15  23
ATOM     23  C   LIG    1      -32.014  86.124  30.812  0.00  0.00    +0.417 C 
ATOM     24  F   LIG    1      -32.128  86.850  29.665  0.00  0.00    -0.166 F 
ATOM     25  F   LIG    1      -33.274  86.043  31.325  0.00  0.00    -0.166 F 
ATOM     26  F   LIG    1      -31.689  84.860  30.424  0.00  0.00    -0.166 F 
ENDBRANCH  15  23
ENDBRANCH   9  11
ENDBRANCH   8   9
BRANCH   8  27
ATOM     27  O   LIG    1      -28.639  84.485  34.420  0.00  0.00    -0.481 OA
ATOM     28  H   LIG    1      -29.310  84.571  33.727  0.00  0.00    +0.295 HD
ENDBRANCH   8  27
ENDBRANCH   4   7
BRANCH   1  29
ATOM     29  O   LIG    1      -25.176  80.414  36.985  0.00  0.00    -0.424 OA
BRANCH  29  33
ATOM     30  C   LIG    1      -24.391  78.344  33.427  0.00  0.00    -0.013 A 
ATOM     31  C   LIG    1      -25.470  77.951  34.216  0.00  0.00    +0.012 A 
ATOM     32  C   LIG    1      -25.753  78.613  35.407  0.00  0.00    +0.047 A 
ATOM     33  C   LIG    1      -24.983  79.699  35.826  0.00  0.00    +0.132 A 
ATOM     34  C   LIG    1      -23.883  80.081  35.054  0.00  0.00    +0.047 A 
ATOM     35  C   LIG    1      -23.593  79.413  33.859  0.00  0.00    +0.012 A 
BRANCH  30  39
ATOM     36  C   LIG    1      -20.622  77.554  31.175  0.00  0.00    +0.125 A 
ATOM     37  N   LIG    1      -21.631  77.883  31.950  0.00  0.00    -0.213 NA
ATOM     38  C   LIG    1      -22.893  77.472  31.597  0.00  0.00    +0.165 A 
ATOM     39  C   LIG    1      -24.132  77.631  32.193  0.00  0.00    +0.046 A 
ATOM     40  C   LIG    1      -25.041  77.017  31.302  0.00  0.00    +0.145 A 
ATOM     41  N   LIG    1      -24.447  76.490  30.233  0.00  0.00    -0.173 NA
ATOM     42  N   LIG    1      -23.132  76.765  30.419  0.00  0.00    -0.221 N 
ATOM     43  C   LIG    1      -22.082  76.423  29.584  0.00  0.00    +0.118 A 
ATOM     44  C   LIG    1      -20.827  76.765  29.902  0.00  0.00    +0.063 A 
BRANCH  36  46
ATOM     45  C   LIG    1      -19.135  78.795  32.697  0.00  0.00    +0.130 C 
ATOM     46  N   LIG    1      -19.331  77.971  31.505  0.00  0.00    -0.321 N 
ATOM     47  C   LIG    1      -18.189  77.139  31.144  0.00  0.00    +0.130 C 
ENDBRANCH  36  46
ENDBRANCH  30  39
ENDBRANCH  29  33
ENDBRANCH   1  29
TORSDOF 10
ENDMDL
MODEL 3
REMARK VINA RESULT:      -7.2     14.543     18.723
REMARK  Name = pdb/CHEMBL3954827.pdb
REMARK                            x       y       z     vdW  Elec       q    Type
REMARK                         _______ _______ _______ _____ _____    ______ ____
ROOT
ATOM      1  C   LIG    1      -28.100  76.891  31.944  0.00  0.00    +0.323 A 
ATOM      2  N   LIG    1      -28.023  77.214  33.244  0.00  0.00    -0.201 NA
ATOM      3  C   LIG    1      -26.796  77.124  33.797  0.00  0.00    +0.145 A 
ATOM      4  C   LIG    1      -25.655  76.720  33.128  0.00  0.00    +0.105 A 
ATOM      5  C   LIG    1      -25.858  76.383  31.809  0.00  0.00    +0.145 A 
ATOM      6  N   LIG    1      -27.067  76.421  31.221  0.00  0.00    -0.201 NA
ENDROOT
BRANCH   4   7
ATOM      7  N   LIG    1      -24.403  76.729  33.727  0.00  0.00    -0.196 NA
ATOM      8  C   LIG    1      -23.681  77.811  33.801  0.00  0.00    +0.285 C 
BRANCH   8   9
ATOM      9  N   LIG    1      -22.441  77.962  34.325  0.00  0.00    -0.269 N 
ATOM     10  H   LIG    1      -22.477  78.391  35.244  0.00  0.00    +0.157 HD
BRANCH   9  11
ATOM     11  C   LIG    1      -21.226  78.182  33.620  0.00  0.00    +0.043 A 
ATOM     12  C   LIG    1      -20.156  79.017  34.061  0.00  0.00    +0.003 A 
ATOM     13  C   LIG    1      -18.981  79.000  33.263  0.00  0.00    +0.011 A 
ATOM     14  C   LIG    1      -18.854  78.254  32.087  0.00  0.00    +0.013 A 
ATOM     15  C   LIG    1      -19.912  77.481  31.628  0.00  0.00    +0.057 A 
ATOM     16  C   LIG    1      -21.081  77.444  32.406  0.00  0.00    +0.036 A 
BRANCH  12  17
ATOM     17  C   LIG    1      -20.200  79.988  35.217  0.00  0.00    -0.016 A 
ATOM     18  C   LIG    1      -19.469  79.792  36.402  0.00  0.00    +0.008 A 
ATOM     19  C   LIG    1      -19.490  80.720  37.456  0.00  0.00    +0.001 A 
ATOM     20  C   LIG    1      -20.351  81.808  37.419  0.00  0.00    +0.000 A 
ATOM     21  C   LIG    1      -21.160  81.987  36.306  0.00  0.00    +0.001 A 
ATOM     22  C   LIG    1      -21.050  81.120  35.210  0.00  0.00    +0.008 A 
ENDBRANCH  12  17
BRANCH  15  23
ATOM     23  C   LIG    1      -19.768  76.718  30.331  0.00  0.00    +0.417 C 
ATOM     24  F   LIG    1      -20.320  77.378  29.275  0.00  0.00    -0.166 F 
ATOM     25  F   LIG    1      -20.383  75.502  30.369  0.00  0.00    -0.166 F 
ATOM     26  F   LIG    1      -18.475  76.469  29.982  0.00  0.00    -0.166 F 
ENDBRANCH  15  23
ENDBRANCH   9  11
ENDBRANCH   8   9
BRANCH   8  27
ATOM     27  O   LIG    1      -24.094  78.989  33.293  0.00  0.00    -0.481 OA
ATOM     28  H   LIG    1      -24.069  79.009  32.324  0.00  0.00    +0.295 HD
ENDBRANCH   8  27
ENDBRANCH   4   7
BRANCH   1  29
ATOM     29  O   LIG    1      -29.351  77.067  31.365  0.00  0.00    -0.424 OA
BRANCH  29  33
ATOM     30  C   LIG    1      -31.662  73.872  29.943  0.00  0.00    -0.013 A 
ATOM     31  C   LIG    1      -30.919  73.706  31.111  0.00  0.00    +0.012 A 
ATOM     32  C   LIG    1      -30.137  74.745  31.605  0.00  0.00    +0.047 A 
ATOM     33  C   LIG    1      -30.095  75.983  30.961  0.00  0.00    +0.132 A 
ATOM     34  C   LIG    1      -30.815  76.148  29.775  0.00  0.00    +0.047 A 
ATOM     35  C   LIG    1      -31.598  75.102  29.273  0.00  0.00    +0.012 A 
BRANCH  30  39
ATOM     36  C   LIG    1      -35.610  73.738  27.871  0.00  0.00    +0.125 A 
ATOM     37  N   LIG    1      -34.471  73.955  28.490  0.00  0.00    -0.213 NA
ATOM     38  C   LIG    1      -33.696  72.876  28.838  0.00  0.00    +0.165 A 
ATOM     39  C   LIG    1      -32.466  72.768  29.463  0.00  0.00    +0.046 A 
ATOM     40  C   LIG    1      -32.240  71.377  29.575  0.00  0.00    +0.145 A 
ATOM     41  N   LIG    1      -33.224  70.646  29.053  0.00  0.00    -0.173 NA
ATOM     42  N   LIG    1      -34.110  71.566  28.598  0.00  0.00    -0.221 N 
ATOM     43  C   LIG    1      -35.314  71.320  27.960  0.00  0.00    +0.118 A 
ATOM     44  C   LIG    1      -36.089  72.338  27.564  0.00  0.00    +0.063 A 
BRANCH  36  46
ATOM     45  C   LIG    1      -35.806  76.122  27.282  0.00  0.00    +0.130 C 
ATOM     46  N   LIG    1      -36.422  74.817  27.519  0.00  0.00    -0.321 N 
ATOM     47  C   LIG    1      -37.654  74.581  26.775  0.00  0.00    +0.130 C 
ENDBRANCH  36  46
ENDBRANCH  30  39
ENDBRANCH  29  33
ENDBRANCH   1  29
TORSDOF 10
ENDMDL
MODEL 4
REMARK VINA RESULT:      -7.1     17.098     20.875
REMARK  Name = pdb/CHEMBL3954827.pdb
REMARK                            x       y       z     vdW  Elec       q    Type
REMARK                         _______ _______ _______ _____ _____    ______ ____
ROOT
ATOM      1  C   LIG    1      -26.230  83.132  37.065  0.00  0.00    +0.323 A 
ATOM      2  N   LIG    1      -26.140  84.265  36.351  0.00  0.00    -0.201 NA
ATOM      3  C   LIG    1      -27.310  84.775  35.914  0.00  0.00    +0.145 A 
ATOM      4  C   LIG    1      -28.551  84.210  36.140  0.00  0.00    +0.105 A 
ATOM      5  C   LIG    1      -28.521  83.035  36.856  0.00  0.00    +0.145 A 
ATOM      6  N   LIG    1      -27.379  82.467  37.283  0.00  0.00    -0.201 NA
ENDROOT
BRANCH   4   7
ATOM      7  N   LIG    1      -29.729  84.826  35.739  0.00  0.00    -0.196 NA
ATOM      8  C   LIG    1      -30.234  84.644  34.551  0.00  0.00    +0.285 C 
BRANCH   8   9
ATOM      9  N   LIG    1      -31.348  85.196  34.016  0.00  0.00    -0.269 N 
ATOM     10  H   LIG    1      -32.176  84.655  34.246  0.00  0.00    +0.157 HD
BRANCH   9  11
ATOM     11  C   LIG    1      -31.450  85.942  32.810  0.00  0.00    +0.043 A 
ATOM     12  C   LIG    1      -30.692  87.110  32.497  0.00  0.00    +0.003 A 
ATOM     13  C   LIG    1      -30.861  87.631  31.185  0.00  0.00    +0.011 A 
ATOM     14  C   LIG    1      -31.737  87.085  30.242  0.00  0.00    +0.013 A 
ATOM     15  C   LIG    1      -32.514  85.979  30.562  0.00  0.00    +0.057 A 
ATOM     16  C   LIG    1      -32.352  85.413  31.837  0.00  0.00    +0.036 A 
BRANCH  12  17
ATOM     17  C   LIG    1      -29.827  87.895  33.452  0.00  0.00    -0.016 A 
ATOM     18  C   LIG    1      -28.498  87.538  33.745  0.00  0.00    +0.008 A 
ATOM     19  C   LIG    1      -27.692  88.298  34.608  0.00  0.00    +0.001 A 
ATOM     20  C   LIG    1      -28.229  89.363  35.317  0.00  0.00    +0.000 A 
ATOM     21  C   LIG    1      -29.564  89.690  35.130  0.00  0.00    +0.001 A 
ATOM     22  C   LIG    1      -30.331  89.000  34.180  0.00  0.00    +0.008 A 
ENDBRANCH  12  17
BRANCH  15  23
ATOM     23  C   LIG    1      -33.486  85.433  29.542  0.00  0.00    +0.417 C 
ATOM     24  F   LIG    1      -34.770  85.813  29.792  0.00  0.00    -0.166 F 
ATOM     25  F   LIG    1      -33.503  84.070  29.514  0.00  0.00    -0.166 F 
ATOM     26  F   LIG    1      -33.221  85.828  28.265  0.00  0.00    -0.166 F 
ENDBRANCH  15  23
ENDBRANCH   9  11
ENDBRANCH   8   9
BRANCH   8  27
ATOM     27  O   LIG    1      -29.642  83.857  33.631  0.00  0.00    -0.481 OA
ATOM     28  H   LIG    1      -30.192  83.719  32.846  0.00  0.00    +0.295 HD
ENDBRANCH   8  27
ENDBRANCH   4   7
BRANCH   1  29
ATOM     29  O   LIG    1      -25.028  82.663  37.580  0.00  0.00    -0.424 OA
BRANCH  29  33
ATOM     30  C   LIG    1      -22.384  80.350  35.293  0.00  0.00    -0.013 A 
ATOM     31  C   LIG    1      -23.567  79.773  35.752  0.00  0.00    +0.012 A 
ATOM     32  C   LIG    1      -24.462  80.513  36.520  0.00  0.00    +0.047 A 
ATOM     33  C   LIG    1      -24.212  81.851  36.826  0.00  0.00    +0.132 A 
ATOM     34  C   LIG    1      -23.015  82.427  36.393  0.00  0.00    +0.047 A 
ATOM     35  C   LIG    1      -22.111  81.684  35.625  0.00  0.00    +0.012 A 
BRANCH  30  39
ATOM     36  C   LIG    1      -23.107  77.442  31.989  0.00  0.00    +0.125 A 
ATOM     37  N   LIG    1      -23.072  78.311  32.974  0.00  0.00    -0.213 NA
ATOM     38  C   LIG    1      -21.852  78.667  33.495  0.00  0.00    +0.165 A 
ATOM     39  C   LIG    1      -21.481  79.548  34.495  0.00  0.00    +0.046 A 
ATOM     40  C   LIG    1      -20.076  79.419  34.584  0.00  0.00    +0.145 A 
ATOM     41  N   LIG    1      -19.576  78.547  33.710  0.00  0.00    -0.173 NA
ATOM     42  N   LIG    1      -20.664  78.093  33.040  0.00  0.00    -0.221 N 
ATOM     43  C   LIG    1      -20.685  77.165  32.013  0.00  0.00    +0.118 A 
ATOM     44  C   LIG    1      -21.844  76.813  31.444  0.00  0.00    +0.063 A 
BRANCH  36  46
ATOM     45  C   LIG    1      -25.053  77.980  30.578  0.00  0.00    +0.130 C 
ATOM     46  N   LIG    1      -24.335  77.053  31.452  0.00  0.00    -0.321 N 
ATOM     47  C   LIG    1      -24.593  75.643  31.187  0.00  0.00    +0.130 C 
ENDBRANCH  36  46
ENDBRANCH  30  39
ENDBRANCH  29  33
ENDBRANCH   1  29
TORSDOF 10
ENDMDL
MODEL 5
REMARK VINA RESULT:      -7.1     17.370     20.538
REMARK  Name = pdb/CHEMBL3954827.pdb
REMARK                            x       y       z     vdW  Elec       q    Type
REMARK                         _______ _______ _______ _____ _____    ______ ____
ROOT
ATOM      1  C   LIG    1      -25.960  81.350  36.975  0.00  0.00    +0.323 A 
ATOM      2  N   LIG    1      -27.258  81.081  37.185  0.00  0.00    -0.201 NA
ATOM      3  C   LIG    1      -28.087  82.145  37.160  0.00  0.00    +0.145 A 
ATOM      4  C   LIG    1      -27.688  83.452  36.950  0.00  0.00    +0.105 A 
ATOM      5  C   LIG    1      -26.332  83.613  36.777  0.00  0.00    +0.145 A 
ATOM      6  N   LIG    1      -25.460  82.591  36.829  0.00  0.00    -0.201 NA
ENDROOT
BRANCH   4   7
ATOM      7  N   LIG    1      -28.597  84.496  36.849  0.00  0.00    -0.196 NA
ATOM      8  C   LIG    1      -29.049  84.911  35.700  0.00  0.00    +0.285 C 
BRANCH   8   9
ATOM      9  N   LIG    1      -29.907  85.928  35.449  0.00  0.00    -0.269 N 
ATOM     10  H   LIG    1      -30.868  85.601  35.413  0.00  0.00    +0.157 HD
BRANCH   9  11
ATOM     11  C   LIG    1      -29.657  87.103  34.687  0.00  0.00    +0.043 A 
ATOM     12  C   LIG    1      -30.262  87.417  33.434  0.00  0.00    +0.003 A 
ATOM     13  C   LIG    1      -29.964  88.701  32.902  0.00  0.00    +0.011 A 
ATOM     14  C   LIG    1      -29.103  89.615  33.519  0.00  0.00    +0.013 A 
ATOM     15  C   LIG    1      -28.474  89.290  34.714  0.00  0.00    +0.057 A 
ATOM     16  C   LIG    1      -28.767  88.043  35.290  0.00  0.00    +0.036 A 
BRANCH  12  17
ATOM     17  C   LIG    1      -31.085  86.483  32.581  0.00  0.00    -0.016 A 
ATOM     18  C   LIG    1      -30.920  86.382  31.187  0.00  0.00    +0.008 A 
ATOM     19  C   LIG    1      -31.667  85.483  30.409  0.00  0.00    +0.001 A 
ATOM     20  C   LIG    1      -32.703  84.754  30.976  0.00  0.00    +0.000 A 
ATOM     21  C   LIG    1      -32.962  84.895  32.331  0.00  0.00    +0.001 A 
ATOM     22  C   LIG    1      -32.137  85.707  33.123  0.00  0.00    +0.008 A 
ENDBRANCH  12  17
BRANCH  15  23
ATOM     23  C   LIG    1      -27.514  90.276  35.340  0.00  0.00    +0.417 C 
ATOM     24  F   LIG    1      -26.377  89.677  35.794  0.00  0.00    -0.166 F 
ATOM     25  F   LIG    1      -28.051  90.915  36.417  0.00  0.00    -0.166 F 
ATOM     26  F   LIG    1      -27.105  91.258  34.490  0.00  0.00    -0.166 F 
ENDBRANCH  15  23
ENDBRANCH   9  11
ENDBRANCH   8   9
BRANCH   8  27
ATOM     27  O   LIG    1      -28.656  84.363  34.533  0.00  0.00    -0.481 OA
ATOM     28  H   LIG    1      -28.346  85.022  33.894  0.00  0.00    +0.295 HD
ENDBRANCH   8  27
ENDBRANCH   4   7
BRANCH   1  29
ATOM     29  O   LIG    1      -25.129  80.237  36.920  0.00  0.00    -0.424 OA
BRANCH  29  33
ATOM     30  C   LIG    1      -24.347  78.356  33.256  0.00  0.00    -0.013 A 
ATOM     31  C   LIG    1      -23.558  79.437  33.646  0.00  0.00    +0.012 A 
ATOM     32  C   LIG    1      -23.797  80.087  34.853  0.00  0.00    +0.047 A 
ATOM     33  C   LIG    1      -24.811  79.660  35.712  0.00  0.00    +0.132 A 
ATOM     34  C   LIG    1      -25.623  78.596  35.315  0.00  0.00    +0.047 A 
ATOM     35  C   LIG    1      -25.388  77.943  34.099  0.00  0.00    +0.012 A 
BRANCH  30  39
ATOM     36  C   LIG    1      -20.512  77.246  31.267  0.00  0.00    +0.125 A 
ATOM     37  N   LIG    1      -21.540  77.648  31.980  0.00  0.00    -0.213 NA
ATOM     38  C   LIG    1      -22.805  77.430  31.491  0.00  0.00    +0.165 A 
ATOM     39  C   LIG    1      -24.065  77.705  31.995  0.00  0.00    +0.046 A 
ATOM     40  C   LIG    1      -24.956  77.278  30.984  0.00  0.00    +0.145 A 
ATOM     41  N   LIG    1      -24.335  76.756  29.928  0.00  0.00    -0.173 NA
ATOM     42  N   LIG    1      -23.019  76.844  30.244  0.00  0.00    -0.221 N 
ATOM     43  C   LIG    1      -21.946  76.429  29.474  0.00  0.00    +0.118 A 
ATOM     44  C   LIG    1      -20.694  76.582  29.921  0.00  0.00    +0.063 A 
BRANCH  36  46
ATOM     45  C   LIG    1      -18.946  78.662  32.535  0.00  0.00    +0.130 C 
ATOM     46  N   LIG    1      -19.216  77.469  31.735  0.00  0.00    -0.321 N 
ATOM     47  C   LIG    1      -18.347  76.333  32.022  0.00  0.00    +0.130 C 
ENDBRANCH  36  46
ENDBRANCH  30  39
ENDBRANCH  29  33
ENDBRANCH   1  29
TORSDOF 10
ENDMDL
MODEL 6
REMARK VINA RESULT:      -7.0     14.012     18.685
REMARK  Name = pdb/CHEMBL3954827.pdb
REMARK                            x       y       z     vdW  Elec       q    Type
REMARK                         _______ _______ _______ _____ _____    ______ ____
ROOT
ATOM      1  C   LIG    1      -28.669  75.583  32.492  0.00  0.00    +0.323 A 
ATOM      2  N   LIG    1      -28.689  76.410  33.548  0.00  0.00    -0.201 NA
ATOM      3  C   LIG    1      -27.570  77.138  33.742  0.00  0.00    +0.145 A 
ATOM      4  C   LIG    1      -26.439  77.075  32.949  0.00  0.00    +0.105 A 
ATOM      5  C   LIG    1      -26.518  76.171  31.914  0.00  0.00    +0.145 A 
ATOM      6  N   LIG    1      -27.596  75.396  31.700  0.00  0.00    -0.201 NA
ENDROOT
BRANCH   4   7
ATOM      7  N   LIG    1      -25.349  77.911  33.146  0.00  0.00    -0.196 NA
ATOM      8  C   LIG    1      -24.319  77.549  33.858  0.00  0.00    +0.285 C 
BRANCH   8   9
ATOM      9  N   LIG    1      -23.209  78.263  34.158  0.00  0.00    -0.269 N 
ATOM     10  H   LIG    1      -23.438  79.100  34.684  0.00  0.00    +0.157 HD
BRANCH   9  11
ATOM     11  C   LIG    1      -22.009  78.354  33.400  0.00  0.00    +0.043 A 
ATOM     12  C   LIG    1      -20.818  79.020  33.818  0.00  0.00    +0.003 A 
ATOM     13  C   LIG    1      -19.693  78.885  32.959  0.00  0.00    +0.011 A 
ATOM     14  C   LIG    1      -19.722  78.184  31.749  0.00  0.00    +0.013 A 
ATOM     15  C   LIG    1      -20.894  77.579  31.315  0.00  0.00    +0.057 A 
ATOM     16  C   LIG    1      -22.020  77.660  32.151  0.00  0.00    +0.036 A 
BRANCH  12  17
ATOM     17  C   LIG    1      -20.678  79.933  35.011  0.00  0.00    -0.016 A 
ATOM     18  C   LIG    1      -21.358  81.160  35.115  0.00  0.00    +0.008 A 
ATOM     19  C   LIG    1      -21.247  81.984  36.247  0.00  0.00    +0.001 A 
ATOM     20  C   LIG    1      -20.344  81.676  37.255  0.00  0.00    +0.000 A 
ATOM     21  C   LIG    1      -19.583  80.522  37.146  0.00  0.00    +0.001 A 
ATOM     22  C   LIG    1      -19.783  79.646  36.070  0.00  0.00    +0.008 A 
ENDBRANCH  12  17
BRANCH  15  23
ATOM     23  C   LIG    1      -20.913  76.864  29.983  0.00  0.00    +0.417 C 
ATOM     24  F   LIG    1      -22.087  77.043  29.315  0.00  0.00    -0.166 F 
ATOM     25  F   LIG    1      -20.763  75.516  30.112  0.00  0.00    -0.166 F 
ATOM     26  F   LIG    1      -19.931  77.268  29.130  0.00  0.00    -0.166 F 
ENDBRANCH  15  23
ENDBRANCH   9  11
ENDBRANCH   8   9
BRANCH   8  27
ATOM     27  O   LIG    1      -24.249  76.345  34.460  0.00  0.00    -0.481 OA
ATOM     28  H   LIG    1      -23.382  75.925  34.359  0.00  0.00    +0.295 HD
ENDBRANCH   8  27
ENDBRANCH   4   7
BRANCH   1  29
ATOM     29  O   LIG    1      -29.856  74.900  32.253  0.00  0.00    -0.424 OA
BRANCH  29  33
ATOM     30  C   LIG    1      -32.874  76.511  29.832  0.00  0.00    -0.013 A 
ATOM     31  C   LIG    1      -31.618  76.266  29.278  0.00  0.00    +0.012 A 
ATOM     32  C   LIG    1      -30.594  75.739  30.058  0.00  0.00    +0.047 A 
ATOM     33  C   LIG    1      -30.802  75.419  31.400  0.00  0.00    +0.132 A 
ATOM     34  C   LIG    1      -32.050  75.688  31.969  0.00  0.00    +0.047 A 
ATOM     35  C   LIG    1      -33.081  76.224  31.188  0.00  0.00    +0.012 A 
BRANCH  30  39
ATOM     36  C   LIG    1      -36.244  74.588  27.631  0.00  0.00    +0.125 A 
ATOM     37  N   LIG    1      -35.203  74.989  28.326  0.00  0.00    -0.213 NA
ATOM     38  C   LIG    1      -34.904  76.330  28.350  0.00  0.00    +0.165 A 
ATOM     39  C   LIG    1      -33.915  77.058  28.987  0.00  0.00    +0.046 A 
ATOM     40  C   LIG    1      -34.123  78.391  28.566  0.00  0.00    +0.145 A 
ATOM     41  N   LIG    1      -35.164  78.522  27.745  0.00  0.00    -0.173 NA
ATOM     42  N   LIG    1      -35.644  77.260  27.620  0.00  0.00    -0.221 N 
ATOM     43  C   LIG    1      -36.735  76.852  26.871  0.00  0.00    +0.118 A 
ATOM     44  C   LIG    1      -37.092  75.563  26.845  0.00  0.00    +0.063 A 
BRANCH  36  46
ATOM     45  C   LIG    1      -37.624  72.783  26.681  0.00  0.00    +0.130 C 
ATOM     46  N   LIG    1      -36.560  73.230  27.578  0.00  0.00    -0.321 N 
ATOM     47  C   LIG    1      -35.523  72.237  27.836  0.00  0.00    +0.130 C 
ENDBRANCH  36  46
ENDBRANCH  30  39
ENDBRANCH  29  33
ENDBRANCH   1  29
TORSDOF 10
ENDMDL
MODEL 7
REMARK VINA RESULT:      -6.8     14.291     19.102
REMARK  Name = pdb/CHEMBL3954827.pdb
REMARK                            x       y       z     vdW  Elec       q    Type
REMARK                         _______ _______ _______ _____ _____    ______ ____
ROOT
ATOM      1  C   LIG    1      -28.729  75.421  32.441  0.00  0.00    +0.323 A 
ATOM      2  N   LIG    1      -28.870  76.416  33.330  0.00  0.00    -0.201 NA
ATOM      3  C   LIG    1      -27.774  77.176  33.536  0.00  0.00    +0.145 A 
ATOM      4  C   LIG    1      -26.554  76.988  32.915  0.00  0.00    +0.105 A 
ATOM      5  C   LIG    1      -26.515  75.919  32.047  0.00  0.00    +0.145 A 
ATOM      6  N   LIG    1      -27.568  75.110  31.834  0.00  0.00    -0.201 NA
ENDROOT
BRANCH   4   7
ATOM      7  N   LIG    1      -25.486  77.854  33.102  0.00  0.00    -0.196 NA
ATOM      8  C   LIG    1      -24.496  77.569  33.900  0.00  0.00    +0.285 C 
BRANCH   8   9
ATOM      9  N   LIG    1      -23.413  78.324  34.200  0.00  0.00    -0.269 N 
ATOM     10  H   LIG    1      -23.681  79.197  34.644  0.00  0.00    +0.157 HD
BRANCH   9  11
ATOM     11  C   LIG    1      -22.174  78.373  33.504  0.00  0.00    +0.043 A 
ATOM     12  C   LIG    1      -21.007  79.066  33.945  0.00  0.00    +0.003 A 
ATOM     13  C   LIG    1      -19.838  78.884  33.157  0.00  0.00    +0.011 A 
ATOM     14  C   LIG    1      -19.802  78.114  31.991  0.00  0.00    +0.013 A 
ATOM     15  C   LIG    1      -20.949  77.480  31.531  0.00  0.00    +0.057 A 
ATOM     16  C   LIG    1      -22.118  77.607  32.299  0.00  0.00    +0.036 A 
BRANCH  12  17
ATOM     17  C   LIG    1      -20.931  80.047  35.089  0.00  0.00    -0.016 A 
ATOM     18  C   LIG    1      -21.745  81.192  35.165  0.00  0.00    +0.008 A 
ATOM     19  C   LIG    1      -21.690  82.079  36.253  0.00  0.00    +0.001 A 
ATOM     20  C   LIG    1      -20.720  81.928  37.234  0.00  0.00    +0.000 A 
ATOM     21  C   LIG    1      -19.834  80.865  37.147  0.00  0.00    +0.001 A 
ATOM     22  C   LIG    1      -19.970  79.919  36.121  0.00  0.00    +0.008 A 
ENDBRANCH  12  17
BRANCH  15  23
ATOM     23  C   LIG    1      -20.898  76.689  30.244  0.00  0.00    +0.417 C 
ATOM     24  F   LIG    1      -20.208  75.522  30.379  0.00  0.00    -0.166 F 
ATOM     25  F   LIG    1      -20.280  77.370  29.238  0.00  0.00    -0.166 F 
ATOM     26  F   LIG    1      -22.124  76.346  29.762  0.00  0.00    -0.166 F 
ENDBRANCH  15  23
ENDBRANCH   9  11
ENDBRANCH   8   9
BRANCH   8  27
ATOM     27  O   LIG    1      -24.449  76.422  34.606  0.00  0.00    -0.481 OA
ATOM     28  H   LIG    1      -23.876  76.484  35.384  0.00  0.00    +0.295 HD
ENDBRANCH   8  27
ENDBRANCH   4   7
BRANCH   1  29
ATOM     29  O   LIG    1      -29.885  74.698  32.176  0.00  0.00    -0.424 OA
BRANCH  29  33
ATOM     30  C   LIG    1      -32.807  76.373  29.680  0.00  0.00    -0.013 A 
ATOM     31  C   LIG    1      -33.185  75.865  30.922  0.00  0.00    +0.012 A 
ATOM     32  C   LIG    1      -32.240  75.296  31.770  0.00  0.00    +0.047 A 
ATOM     33  C   LIG    1      -30.892  75.243  31.412  0.00  0.00    +0.132 A 
ATOM     34  C   LIG    1      -30.510  75.725  30.158  0.00  0.00    +0.047 A 
ATOM     35  C   LIG    1      -31.460  76.293  29.301  0.00  0.00    +0.012 A 
BRANCH  30  39
ATOM     36  C   LIG    1      -35.159  80.149  30.009  0.00  0.00    +0.125 A 
ATOM     37  N   LIG    1      -34.396  79.081  30.071  0.00  0.00    -0.213 NA
ATOM     38  C   LIG    1      -34.483  78.151  29.063  0.00  0.00    +0.165 A 
ATOM     39  C   LIG    1      -33.819  76.960  28.827  0.00  0.00    +0.046 A 
ATOM     40  C   LIG    1      -34.404  76.451  27.645  0.00  0.00    +0.145 A 
ATOM     41  N   LIG    1      -35.347  77.248  27.146  0.00  0.00    -0.173 NA
ATOM     42  N   LIG    1      -35.390  78.290  28.012  0.00  0.00    -0.221 N 
ATOM     43  C   LIG    1      -36.210  79.403  27.940  0.00  0.00    +0.118 A 
ATOM     44  C   LIG    1      -36.137  80.357  28.875  0.00  0.00    +0.063 A 
BRANCH  36  46
ATOM     45  C   LIG    1      -35.289  82.512  30.692  0.00  0.00    +0.130 C 
ATOM     46  N   LIG    1      -35.100  81.101  31.027  0.00  0.00    -0.321 N 
ATOM     47  C   LIG    1      -35.504  80.737  32.380  0.00  0.00    +0.130 C 
ENDBRANCH  36  46
ENDBRANCH  30  39
ENDBRANCH  29  33
ENDBRANCH   1  29
TORSDOF 10
ENDMDL
MODEL 8
REMARK VINA RESULT:      -6.7      1.722      3.250
REMARK  Name = pdb/CHEMBL3954827.pdb
REMARK                            x       y       z     vdW  Elec       q    Type
REMARK                         _______ _______ _______ _____ _____    ______ ____
ROOT
ATOM      1  C   LIG    1      -36.320  67.047  20.132  0.00  0.00    +0.323 A 
ATOM      2  N   LIG    1      -36.930  68.120  19.604  0.00  0.00    -0.201 NA
ATOM      3  C   LIG    1      -37.634  68.877  20.471  0.00  0.00    +0.145 A 
ATOM      4  C   LIG    1      -37.767  68.615  21.822  0.00  0.00    +0.105 A 
ATOM      5  C   LIG    1      -37.126  67.474  22.247  0.00  0.00    +0.145 A 
ATOM      6  N   LIG    1      -36.442  66.666  21.418  0.00  0.00    -0.201 NA
ENDROOT
BRANCH   4   7
ATOM      7  N   LIG    1      -38.433  69.478  22.681  0.00  0.00    -0.196 NA
ATOM      8  C   LIG    1      -39.721  69.410  22.868  0.00  0.00    +0.285 C 
BRANCH   8   9
ATOM      9  N   LIG    1      -40.503  70.196  23.645  0.00  0.00    -0.269 N 
ATOM     10  H   LIG    1      -41.299  69.682  24.009  0.00  0.00    +0.157 HD
BRANCH   9  11
ATOM     11  C   LIG    1      -40.713  71.597  23.522  0.00  0.00    +0.043 A 
ATOM     12  C   LIG    1      -41.806  72.211  22.841  0.00  0.00    +0.003 A 
ATOM     13  C   LIG    1      -41.891  73.626  22.944  0.00  0.00    +0.011 A 
ATOM     14  C   LIG    1      -40.957  74.410  23.629  0.00  0.00    +0.013 A 
ATOM     15  C   LIG    1      -39.864  73.820  24.249  0.00  0.00    +0.057 A 
ATOM     16  C   LIG    1      -39.761  72.420  24.199  0.00  0.00    +0.036 A 
BRANCH  12  17
ATOM     17  C   LIG    1      -42.801  71.517  21.943  0.00  0.00    -0.016 A 
ATOM     18  C   LIG    1      -42.529  71.217  20.596  0.00  0.00    +0.008 A 
ATOM     19  C   LIG    1      -43.449  70.539  19.779  0.00  0.00    +0.001 A 
ATOM     20  C   LIG    1      -44.727  70.260  20.242  0.00  0.00    +0.000 A 
ATOM     21  C   LIG    1      -45.069  70.625  21.536  0.00  0.00    +0.001 A 
ATOM     22  C   LIG    1      -44.108  71.198  22.382  0.00  0.00    +0.008 A 
ENDBRANCH  12  17
BRANCH  15  23
ATOM     23  C   LIG    1      -38.843  74.691  24.945  0.00  0.00    +0.417 C 
ATOM     24  F   LIG    1      -38.812  75.957  24.443  0.00  0.00    -0.166 F 
ATOM     25  F   LIG    1      -37.574  74.211  24.818  0.00  0.00    -0.166 F 
ATOM     26  F   LIG    1      -39.058  74.824  26.284  0.00  0.00    -0.166 F 
ENDBRANCH  15  23
ENDBRANCH   9  11
ENDBRANCH   8   9
BRANCH   8  27
ATOM     27  O   LIG    1      -40.493  68.507  22.231  0.00  0.00    -0.481 OA
ATOM     28  H   LIG    1      -40.188  67.596  22.357  0.00  0.00    +0.295 HD
ENDBRANCH   8  27
ENDBRANCH   4   7
BRANCH   1  29
ATOM     29  O   LIG    1      -35.530  66.322  19.248  0.00  0.00    -0.424 OA
BRANCH  29  33
ATOM     30  C   LIG    1      -31.557  67.450  18.536  0.00  0.00    -0.013 A 
ATOM     31  C   LIG    1      -32.528  67.750  17.583  0.00  0.00    +0.012 A 
ATOM     32  C   LIG    1      -33.855  67.383  17.786  0.00  0.00    +0.047 A 
ATOM     33  C   LIG    1      -34.249  66.731  18.956  0.00  0.00    +0.132 A 
ATOM     34  C   LIG    1      -33.276  66.402  19.902  0.00  0.00    +0.047 A 
ATOM     35  C   LIG    1      -31.940  66.765  19.697  0.00  0.00    +0.012 A 
BRANCH  30  39
ATOM     36  C   LIG    1      -27.718  65.180  18.641  0.00  0.00    +0.125 A 
ATOM     37  N   LIG    1      -28.926  65.697  18.665  0.00  0.00    -0.213 NA
ATOM     38  C   LIG    1      -29.077  67.030  18.369  0.00  0.00    +0.165 A 
ATOM     39  C   LIG    1      -30.188  67.852  18.288  0.00  0.00    +0.046 A 
ATOM     40  C   LIG    1      -29.666  69.131  17.991  0.00  0.00    +0.145 A 
ATOM     41  N   LIG    1      -28.340  69.138  17.870  0.00  0.00    -0.173 NA
ATOM     42  N   LIG    1      -27.983  67.850  18.096  0.00  0.00    -0.221 N 
ATOM     43  C   LIG    1      -26.702  67.324  18.081  0.00  0.00    +0.118 A 
ATOM     44  C   LIG    1      -26.504  66.023  18.324  0.00  0.00    +0.063 A 
BRANCH  36  46
ATOM     45  C   LIG    1      -27.575  62.844  17.875  0.00  0.00    +0.130 C 
ATOM     46  N   LIG    1      -27.536  63.832  18.952  0.00  0.00    -0.321 N 
ATOM     47  C   LIG    1      -26.704  63.460  20.091  0.00  0.00    +0.130 C 
ENDBRANCH  36  46
ENDBRANCH  30  39
ENDBRANCH  29  33
ENDBRANCH   1  29
TORSDOF 10
ENDMDL
MODEL 9
REMARK VINA RESULT:      -6.6     14.222     18.498
REMARK  Name = pdb/CHEMBL3954827.pdb
REMARK                            x       y       z     vdW  Elec       q    Type
REMARK                         _______ _______ _______ _____ _____    ______ ____
ROOT
ATOM      1  C   LIG    1      -28.319  74.837  33.025  0.00  0.00    +0.323 A 
ATOM      2  N   LIG    1      -27.407  74.869  32.040  0.00  0.00    -0.201 NA
ATOM      3  C   LIG    1      -26.492  75.857  32.123  0.00  0.00    +0.145 A 
ATOM      4  C   LIG    1      -26.448  76.811  33.122  0.00  0.00    +0.105 A 
ATOM      5  C   LIG    1      -27.449  76.701  34.061  0.00  0.00    +0.145 A 
ATOM      6  N   LIG    1      -28.405  75.757  34.004  0.00  0.00    -0.201 NA
ENDROOT
BRANCH   4   7
ATOM      7  N   LIG    1      -25.431  77.752  33.202  0.00  0.00    -0.196 NA
ATOM      8  C   LIG    1      -24.324  77.520  33.849  0.00  0.00    +0.285 C 
BRANCH   8   9
ATOM      9  N   LIG    1      -23.268  78.347  34.035  0.00  0.00    -0.269 N 
ATOM     10  H   LIG    1      -23.562  79.249  34.395  0.00  0.00    +0.157 HD
BRANCH   9  11
ATOM     11  C   LIG    1      -22.053  78.377  33.296  0.00  0.00    +0.043 A 
ATOM     12  C   LIG    1      -20.830  78.960  33.744  0.00  0.00    +0.003 A 
ATOM     13  C   LIG    1      -19.702  78.771  32.899  0.00  0.00    +0.011 A 
ATOM     14  C   LIG    1      -19.755  78.094  31.676  0.00  0.00    +0.013 A 
ATOM     15  C   LIG    1      -20.955  77.569  31.215  0.00  0.00    +0.057 A 
ATOM     16  C   LIG    1      -22.087  77.706  32.036  0.00  0.00    +0.036 A 
BRANCH  12  17
ATOM     17  C   LIG    1      -20.653  79.842  34.955  0.00  0.00    -0.016 A 
ATOM     18  C   LIG    1      -21.286  81.091  35.087  0.00  0.00    +0.008 A 
ATOM     19  C   LIG    1      -21.142  81.887  36.235  0.00  0.00    +0.001 A 
ATOM     20  C   LIG    1      -20.248  81.526  37.233  0.00  0.00    +0.000 A 
ATOM     21  C   LIG    1      -19.530  80.346  37.098  0.00  0.00    +0.001 A 
ATOM     22  C   LIG    1      -19.766  79.501  36.004  0.00  0.00    +0.008 A 
ENDBRANCH  12  17
BRANCH  15  23
ATOM     23  C   LIG    1      -20.998  76.880  29.870  0.00  0.00    +0.417 C 
ATOM     24  F   LIG    1      -21.008  75.523  29.982  0.00  0.00    -0.166 F 
ATOM     25  F   LIG    1      -19.916  77.179  29.097  0.00  0.00    -0.166 F 
ATOM     26  F   LIG    1      -22.090  77.203  29.123  0.00  0.00    -0.166 F 
ENDBRANCH  15  23
ENDBRANCH   9  11
ENDBRANCH   8   9
BRANCH   8  27
ATOM     27  O   LIG    1      -24.098  76.359  34.493  0.00  0.00    -0.481 OA
ATOM     28  H   LIG    1      -23.706  75.682  33.921  0.00  0.00    +0.295 HD
ENDBRANCH   8  27
ENDBRANCH   4   7
BRANCH   1  29
ATOM     29  O   LIG    1      -29.204  73.767  32.975  0.00  0.00    -0.424 OA
BRANCH  29  33
ATOM     30  C   LIG    1      -32.549  73.975  30.457  0.00  0.00    -0.013 A 
ATOM     31  C   LIG    1      -31.458  73.197  30.073  0.00  0.00    +0.012 A 
ATOM     32  C   LIG    1      -30.330  73.113  30.884  0.00  0.00    +0.047 A 
ATOM     33  C   LIG    1      -30.272  73.782  32.108  0.00  0.00    +0.132 A 
ATOM     34  C   LIG    1      -31.350  74.586  32.485  0.00  0.00    +0.047 A 
ATOM     35  C   LIG    1      -32.484  74.676  31.670  0.00  0.00    +0.012 A 
BRANCH  30  39
ATOM     36  C   LIG    1      -34.121  77.196  27.802  0.00  0.00    +0.125 A 
ATOM     37  N   LIG    1      -33.533  76.366  28.634  0.00  0.00    -0.213 NA
ATOM     38  C   LIG    1      -34.083  75.120  28.818  0.00  0.00    +0.165 A 
ATOM     39  C   LIG    1      -33.705  74.034  29.588  0.00  0.00    +0.046 A 
ATOM     40  C   LIG    1      -34.721  73.074  29.377  0.00  0.00    +0.145 A 
ATOM     41  N   LIG    1      -35.664  73.490  28.533  0.00  0.00    -0.173 NA
ATOM     42  N   LIG    1      -35.268  74.740  28.188  0.00  0.00    -0.221 N 
ATOM     43  C   LIG    1      -35.907  75.609  27.320  0.00  0.00    +0.118 A 
ATOM     44  C   LIG    1      -35.392  76.819  27.075  0.00  0.00    +0.063 A 
BRANCH  36  46
ATOM     45  C   LIG    1      -34.332  79.632  28.102  0.00  0.00    +0.130 C 
ATOM     46  N   LIG    1      -33.590  78.473  27.608  0.00  0.00    -0.321 N 
ATOM     47  C   LIG    1      -32.144  78.652  27.553  0.00  0.00    +0.130 C 
ENDBRANCH  36  46
ENDBRANCH  30  39
ENDBRANCH  29  33
ENDBRANCH   1  29
TORSDOF 10
ENDMDL
