MODEL 1
REMARK VINA RESULT:      -6.0      0.000      0.000
REMARK  Name = pdb/CHEMBL3934347.pdb
REMARK                            x       y       z     vdW  Elec       q    Type
REMARK                         _______ _______ _______ _____ _____    ______ ____
ROOT
ATOM      1  C   LIG    1      -26.254  77.622  13.941  0.00  0.00    +0.149 A 
ATOM      2  N   LIG    1      -25.158  77.714  14.705  0.00  0.00    -0.160 NA
ATOM      3  N   LIG    1      -24.666  78.965  14.496  0.00  0.00    -0.218 N 
ATOM      4  C   LIG    1      -25.510  79.709  13.651  0.00  0.00    +0.129 A 
ATOM      5  C   LIG    1      -26.523  78.851  13.303  0.00  0.00    +0.078 A 
ENDROOT
BRANCH   3   6
ATOM      6  C   LIG    1      -23.444  79.332  15.141  0.00  0.00    +0.067 A 
ATOM      7  C   LIG    1      -22.268  78.620  14.828  0.00  0.00    +0.028 A 
ATOM      8  C   LIG    1      -21.046  78.958  15.421  0.00  0.00    +0.002 A 
ATOM      9  C   LIG    1      -20.976  80.023  16.312  0.00  0.00    +0.000 A 
ATOM     10  C   LIG    1      -22.129  80.744  16.616  0.00  0.00    +0.002 A 
ATOM     11  C   LIG    1      -23.362  80.404  16.038  0.00  0.00    +0.028 A 
ENDBRANCH   3   6
BRANCH   4  12
ATOM     12  N   LIG    1      -25.427  81.046  13.262  0.00  0.00    -0.266 N 
ATOM     13  H   LIG    1      -26.153  81.676  13.598  0.00  0.00    +0.157 HD
ATOM     14  C   LIG    1      -24.446  81.572  12.334  0.00  0.00    +0.251 C 
ATOM     15  O   LIG    1      -23.617  80.865  11.809  0.00  0.00    -0.270 OA
BRANCH  14  16
ATOM     16  C   LIG    1      -24.459  83.037  12.079  0.00  0.00    +0.056 A 
ATOM     17  C   LIG    1      -25.361  83.676  11.234  0.00  0.00    +0.054 A 
ATOM     18 CL   LIG    1      -26.595  82.851  10.353  0.00  0.00    -0.083 Cl
ATOM     19  C   LIG    1      -25.270  85.051  11.040  0.00  0.00    +0.041 A 
ATOM     20  C   LIG    1      -24.276  85.814  11.674  0.00  0.00    +0.052 A 
ATOM     21 CL   LIG    1      -24.334  87.502  11.294  0.00  0.00    -0.083 Cl
ATOM     22  C   LIG    1      -23.345  85.219  12.548  0.00  0.00    +0.019 A 
ATOM     23  C   LIG    1      -23.461  83.812  12.718  0.00  0.00    +0.026 A 
BRANCH  22  24
ATOM     24  C   LIG    1      -22.292  85.941  13.315  0.00  0.00    +0.072 A 
ATOM     25  N   LIG    1      -21.049  85.889  12.765  0.00  0.00    -0.255 NA
ATOM     26  C   LIG    1      -20.036  86.528  13.402  0.00  0.00    +0.111 A 
ATOM     27  C   LIG    1      -20.190  87.236  14.578  0.00  0.00    +0.020 A 
ATOM     28  C   LIG    1      -21.456  87.296  15.132  0.00  0.00    +0.004 A 
ATOM     29  C   LIG    1      -22.515  86.652  14.494  0.00  0.00    +0.028 A 
ENDBRANCH  22  24
ENDBRANCH  14  16
ENDBRANCH   4  12
BRANCH   1  31
ATOM     30  N   LIG    1      -26.614  75.287  13.503  0.00  0.00    -0.247 NA
ATOM     31  C   LIG    1      -27.092  76.430  13.833  0.00  0.00    +0.236 C 
BRANCH  31  32
ATOM     32  O   LIG    1      -28.383  76.680  14.148  0.00  0.00    -0.491 OA
ATOM     33  H   LIG    1      -28.960  75.990  13.768  0.00  0.00    +0.294 HD
ENDBRANCH  31  32
BRANCH  30  34
ATOM     34  C   LIG    1      -27.459  74.091  13.436  0.00  0.00    +0.173 C 
BRANCH  34  35
ATOM     35  C   LIG    1      -26.898  72.972  14.322  0.00  0.00    +0.182 C 
BRANCH  35  37
ATOM     36  C   LIG    1      -27.490  72.294  16.522  0.00  0.00    +0.194 C 
ATOM     37  O   LIG    1      -27.069  73.362  15.690  0.00  0.00    -0.381 OA
ENDBRANCH  35  37
ENDBRANCH  34  35
ENDBRANCH  30  34
ENDBRANCH   1  31
TORSDOF 9
ENDMDL
MODEL 2
REMARK VINA RESULT:      -6.0     20.647     23.424
REMARK  Name = pdb/CHEMBL3934347.pdb
REMARK                            x       y       z     vdW  Elec       q    Type
REMARK                         _______ _______ _______ _____ _____    ______ ____
ROOT
ATOM      1  C   LIG    1      -24.819  82.903  37.161  0.00  0.00    +0.149 A 
ATOM      2  N   LIG    1      -23.835  83.416  37.911  0.00  0.00    -0.160 NA
ATOM      3  N   LIG    1      -22.781  82.569  37.766  0.00  0.00    -0.218 N 
ATOM      4  C   LIG    1      -23.071  81.549  36.842  0.00  0.00    +0.129 A 
ATOM      5  C   LIG    1      -24.369  81.767  36.456  0.00  0.00    +0.078 A 
ENDROOT
BRANCH   3   6
ATOM      6  C   LIG    1      -21.590  82.831  38.515  0.00  0.00    +0.067 A 
ATOM      7  C   LIG    1      -21.461  82.278  39.805  0.00  0.00    +0.028 A 
ATOM      8  C   LIG    1      -20.305  82.492  40.565  0.00  0.00    +0.002 A 
ATOM      9  C   LIG    1      -19.256  83.238  40.039  0.00  0.00    +0.000 A 
ATOM     10  C   LIG    1      -19.367  83.776  38.758  0.00  0.00    +0.002 A 
ATOM     11  C   LIG    1      -20.527  83.579  37.994  0.00  0.00    +0.028 A 
ENDBRANCH   3   6
BRANCH   4  12
ATOM     12  N   LIG    1      -22.246  80.542  36.340  0.00  0.00    -0.266 N 
ATOM     13  H   LIG    1      -22.383  79.600  36.704  0.00  0.00    +0.157 HD
ATOM     14  C   LIG    1      -21.146  80.762  35.423  0.00  0.00    +0.251 C 
ATOM     15  O   LIG    1      -20.853  81.867  35.028  0.00  0.00    -0.270 OA
BRANCH  14  16
ATOM     16  C   LIG    1      -20.408  79.567  34.936  0.00  0.00    +0.056 A 
ATOM     17  C   LIG    1      -19.310  79.009  35.582  0.00  0.00    +0.054 A 
ATOM     18 CL   LIG    1      -18.643  79.635  37.046  0.00  0.00    -0.083 Cl
ATOM     19  C   LIG    1      -18.669  77.905  35.027  0.00  0.00    +0.041 A 
ATOM     20  C   LIG    1      -19.103  77.341  33.817  0.00  0.00    +0.052 A 
ATOM     21 CL   LIG    1      -18.167  75.980  33.299  0.00  0.00    -0.083 Cl
ATOM     22  C   LIG    1      -20.217  77.860  33.127  0.00  0.00    +0.019 A 
ATOM     23  C   LIG    1      -20.843  78.992  33.717  0.00  0.00    +0.026 A 
BRANCH  22  24
ATOM     24  C   LIG    1      -20.794  77.304  31.871  0.00  0.00    +0.072 A 
ATOM     25  N   LIG    1      -20.083  77.582  30.745  0.00  0.00    -0.255 NA
ATOM     26  C   LIG    1      -20.542  77.106  29.561  0.00  0.00    +0.111 A 
ATOM     27  C   LIG    1      -21.689  76.348  29.427  0.00  0.00    +0.020 A 
ATOM     28  C   LIG    1      -22.408  76.060  30.574  0.00  0.00    +0.004 A 
ATOM     29  C   LIG    1      -21.953  76.533  31.804  0.00  0.00    +0.028 A 
ENDBRANCH  22  24
ENDBRANCH  14  16
ENDBRANCH   4  12
BRANCH   1  31
ATOM     30  N   LIG    1      -26.440  84.369  36.163  0.00  0.00    -0.247 NA
ATOM     31  C   LIG    1      -26.156  83.479  37.041  0.00  0.00    +0.236 C 
BRANCH  31  32
ATOM     32  O   LIG    1      -27.027  82.942  37.925  0.00  0.00    -0.491 OA
ATOM     33  H   LIG    1      -27.497  83.651  38.405  0.00  0.00    +0.294 HD
ENDBRANCH  31  32
BRANCH  30  34
ATOM     34  C   LIG    1      -27.795  84.911  36.028  0.00  0.00    +0.173 C 
BRANCH  34  35
ATOM     35  C   LIG    1      -27.817  86.102  35.063  0.00  0.00    +0.182 C 
BRANCH  35  37
ATOM     36  C   LIG    1      -27.024  88.308  35.456  0.00  0.00    +0.194 C 
ATOM     37  O   LIG    1      -26.689  86.934  35.359  0.00  0.00    -0.381 OA
ENDBRANCH  35  37
ENDBRANCH  34  35
ENDBRANCH  30  34
ENDBRANCH   1  31
TORSDOF 9
ENDMDL
MODEL 3
REMARK VINA RESULT:      -5.9     17.109     19.703
REMARK  Name = pdb/CHEMBL3934347.pdb
REMARK                            x       y       z     vdW  Elec       q    Type
REMARK                         _______ _______ _______ _____ _____    ______ ____
ROOT
ATOM      1  C   LIG    1      -31.751  74.127  29.730  0.00  0.00    +0.149 A 
ATOM      2  N   LIG    1      -31.760  75.457  29.562  0.00  0.00    -0.160 NA
ATOM      3  N   LIG    1      -32.740  75.707  28.652  0.00  0.00    -0.218 N 
ATOM      4  C   LIG    1      -33.421  74.527  28.301  0.00  0.00    +0.129 A 
ATOM      5  C   LIG    1      -32.791  73.524  28.992  0.00  0.00    +0.078 A 
ENDROOT
BRANCH   3   6
ATOM      6  C   LIG    1      -32.940  77.056  28.222  0.00  0.00    +0.067 A 
ATOM      7  C   LIG    1      -32.242  77.520  27.088  0.00  0.00    +0.028 A 
ATOM      8  C   LIG    1      -32.422  78.826  26.620  0.00  0.00    +0.002 A 
ATOM      9  C   LIG    1      -33.316  79.677  27.259  0.00  0.00    +0.000 A 
ATOM     10  C   LIG    1      -34.024  79.223  28.371  0.00  0.00    +0.002 A 
ATOM     11  C   LIG    1      -33.840  77.920  28.857  0.00  0.00    +0.028 A 
ENDBRANCH   3   6
BRANCH   4  12
ATOM     12  N   LIG    1      -34.538  74.354  27.483  0.00  0.00    -0.266 N 
ATOM     13  H   LIG    1      -34.371  74.192  26.491  0.00  0.00    +0.157 HD
ATOM     14  C   LIG    1      -35.911  74.496  27.926  0.00  0.00    +0.251 C 
ATOM     15  O   LIG    1      -36.189  74.794  29.065  0.00  0.00    -0.270 OA
BRANCH  14  16
ATOM     16  C   LIG    1      -36.983  74.213  26.936  0.00  0.00    +0.056 A 
ATOM     17  C   LIG    1      -37.316  72.940  26.486  0.00  0.00    +0.054 A 
ATOM     18 CL   LIG    1      -36.521  71.502  27.013  0.00  0.00    -0.083 Cl
ATOM     19  C   LIG    1      -38.319  72.784  25.533  0.00  0.00    +0.041 A 
ATOM     20  C   LIG    1      -39.002  73.891  25.004  0.00  0.00    +0.052 A 
ATOM     21 CL   LIG    1      -40.205  73.480  23.829  0.00  0.00    -0.083 Cl
ATOM     22  C   LIG    1      -38.712  75.201  25.433  0.00  0.00    +0.019 A 
ATOM     23  C   LIG    1      -37.677  75.326  26.401  0.00  0.00    +0.026 A 
BRANCH  22  24
ATOM     24  C   LIG    1      -39.413  76.436  24.982  0.00  0.00    +0.072 A 
ATOM     25  N   LIG    1      -38.693  77.226  24.140  0.00  0.00    -0.255 NA
ATOM     26  C   LIG    1      -39.265  78.367  23.682  0.00  0.00    +0.111 A 
ATOM     27  C   LIG    1      -40.542  78.776  24.012  0.00  0.00    +0.020 A 
ATOM     28  C   LIG    1      -41.277  77.968  24.862  0.00  0.00    +0.004 A 
ATOM     29  C   LIG    1      -40.713  76.787  25.343  0.00  0.00    +0.028 A 
ENDBRANCH  22  24
ENDBRANCH  14  16
ENDBRANCH   4  12
BRANCH   1  31
ATOM     30  N   LIG    1      -30.175  72.379  30.214  0.00  0.00    -0.247 NA
ATOM     31  C   LIG    1      -30.830  73.410  30.606  0.00  0.00    +0.236 C 
BRANCH  31  32
ATOM     32  O   LIG    1      -30.739  73.977  31.831  0.00  0.00    -0.491 OA
ATOM     33  H   LIG    1      -30.263  73.382  32.441  0.00  0.00    +0.294 HD
ENDBRANCH  31  32
BRANCH  30  34
ATOM     34  C   LIG    1      -29.225  71.691  31.092  0.00  0.00    +0.173 C 
BRANCH  34  35
ATOM     35  C   LIG    1      -28.753  70.374  30.465  0.00  0.00    +0.182 C 
BRANCH  35  37
ATOM     36  C   LIG    1      -26.580  69.557  29.954  0.00  0.00    +0.194 C 
ATOM     37  O   LIG    1      -27.507  70.619  29.802  0.00  0.00    -0.381 OA
ENDBRANCH  35  37
ENDBRANCH  34  35
ENDBRANCH  30  34
ENDBRANCH   1  31
TORSDOF 9
ENDMDL
MODEL 4
REMARK VINA RESULT:      -5.9     18.341     20.621
REMARK  Name = pdb/CHEMBL3934347.pdb
REMARK                            x       y       z     vdW  Elec       q    Type
REMARK                         _______ _______ _______ _____ _____    ______ ____
ROOT
ATOM      1  C   LIG    1      -26.439  76.291  31.881  0.00  0.00    +0.149 A 
ATOM      2  N   LIG    1      -25.314  75.845  31.307  0.00  0.00    -0.160 NA
ATOM      3  N   LIG    1      -24.343  76.731  31.660  0.00  0.00    -0.218 N 
ATOM      4  C   LIG    1      -24.842  77.708  32.541  0.00  0.00    +0.129 A 
ATOM      5  C   LIG    1      -26.176  77.422  32.683  0.00  0.00    +0.078 A 
ENDROOT
BRANCH   3   6
ATOM      6  C   LIG    1      -23.028  76.544  31.131  0.00  0.00    +0.067 A 
ATOM      7  C   LIG    1      -22.037  75.971  31.954  0.00  0.00    +0.028 A 
ATOM      8  C   LIG    1      -20.742  75.753  31.472  0.00  0.00    +0.002 A 
ATOM      9  C   LIG    1      -20.425  76.079  30.157  0.00  0.00    +0.000 A 
ATOM     10  C   LIG    1      -21.401  76.630  29.330  0.00  0.00    +0.002 A 
ATOM     11  C   LIG    1      -22.699  76.867  29.808  0.00  0.00    +0.028 A 
ENDBRANCH   3   6
BRANCH   4  12
ATOM     12  N   LIG    1      -24.169  78.732  33.208  0.00  0.00    -0.266 N 
ATOM     13  H   LIG    1      -24.175  79.654  32.775  0.00  0.00    +0.157 HD
ATOM     14  C   LIG    1      -23.378  78.549  34.408  0.00  0.00    +0.251 C 
ATOM     15  O   LIG    1      -23.235  77.464  34.923  0.00  0.00    -0.270 OA
BRANCH  14  16
ATOM     16  C   LIG    1      -22.780  79.762  35.026  0.00  0.00    +0.056 A 
ATOM     17  C   LIG    1      -21.435  80.105  34.933  0.00  0.00    +0.054 A 
ATOM     18 CL   LIG    1      -20.265  79.161  34.085  0.00  0.00    -0.083 Cl
ATOM     19  C   LIG    1      -20.967  81.248  35.574  0.00  0.00    +0.041 A 
ATOM     20  C   LIG    1      -21.825  82.066  36.327  0.00  0.00    +0.052 A 
ATOM     21 CL   LIG    1      -21.043  83.432  37.047  0.00  0.00    -0.083 Cl
ATOM     22  C   LIG    1      -23.197  81.770  36.446  0.00  0.00    +0.019 A 
ATOM     23  C   LIG    1      -23.641  80.591  35.785  0.00  0.00    +0.026 A 
BRANCH  22  24
ATOM     24  C   LIG    1      -24.203  82.598  37.169  0.00  0.00    +0.072 A 
ATOM     25  N   LIG    1      -25.231  83.048  36.400  0.00  0.00    -0.255 NA
ATOM     26  C   LIG    1      -26.190  83.806  36.988  0.00  0.00    +0.111 A 
ATOM     27  C   LIG    1      -26.192  84.145  38.327  0.00  0.00    +0.020 A 
ATOM     28  C   LIG    1      -25.150  83.681  39.110  0.00  0.00    +0.004 A 
ATOM     29  C   LIG    1      -24.154  82.896  38.530  0.00  0.00    +0.028 A 
ENDBRANCH  22  24
ENDBRANCH  14  16
ENDBRANCH   4  12
BRANCH   1  31
ATOM     30  N   LIG    1      -28.787  76.306  31.374  0.00  0.00    -0.247 NA
ATOM     31  C   LIG    1      -27.747  75.656  31.745  0.00  0.00    +0.236 C 
BRANCH  31  32
ATOM     32  O   LIG    1      -27.705  74.332  32.020  0.00  0.00    -0.491 OA
ATOM     33  H   LIG    1      -28.358  73.855  31.473  0.00  0.00    +0.294 HD
ENDBRANCH  31  32
BRANCH  30  34
ATOM     34  C   LIG    1      -30.086  75.648  31.205  0.00  0.00    +0.173 C 
BRANCH  34  35
ATOM     35  C   LIG    1      -30.893  76.306  30.080  0.00  0.00    +0.182 C 
BRANCH  35  37
ATOM     36  C   LIG    1      -31.448  74.012  29.791  0.00  0.00    +0.194 C 
ATOM     37  O   LIG    1      -31.306  75.279  29.170  0.00  0.00    -0.381 OA
ENDBRANCH  35  37
ENDBRANCH  34  35
ENDBRANCH  30  34
ENDBRANCH   1  31
TORSDOF 9
ENDMDL
MODEL 5
REMARK VINA RESULT:      -5.9     16.876     19.845
REMARK  Name = pdb/CHEMBL3934347.pdb
REMARK                            x       y       z     vdW  Elec       q    Type
REMARK                         _______ _______ _______ _____ _____    ______ ____
ROOT
ATOM      1  C   LIG    1      -39.716  71.154  24.364  0.00  0.00    +0.149 A 
ATOM      2  N   LIG    1      -39.970  72.428  24.038  0.00  0.00    -0.160 NA
ATOM      3  N   LIG    1      -39.007  73.165  24.654  0.00  0.00    -0.218 N 
ATOM      4  C   LIG    1      -38.077  72.339  25.312  0.00  0.00    +0.129 A 
ATOM      5  C   LIG    1      -38.530  71.059  25.121  0.00  0.00    +0.078 A 
ENDROOT
BRANCH   3   6
ATOM      6  C   LIG    1      -39.062  74.590  24.538  0.00  0.00    +0.067 A 
ATOM      7  C   LIG    1      -37.906  75.342  24.826  0.00  0.00    +0.028 A 
ATOM      8  C   LIG    1      -37.909  76.737  24.706  0.00  0.00    +0.002 A 
ATOM      9  C   LIG    1      -39.056  77.395  24.275  0.00  0.00    +0.000 A 
ATOM     10  C   LIG    1      -40.200  76.659  23.972  0.00  0.00    +0.002 A 
ATOM     11  C   LIG    1      -40.211  75.262  24.102  0.00  0.00    +0.028 A 
ENDBRANCH   3   6
BRANCH   4  12
ATOM     12  N   LIG    1      -36.899  72.679  25.977  0.00  0.00    -0.266 N 
ATOM     13  H   LIG    1      -36.023  72.552  25.471  0.00  0.00    +0.157 HD
ATOM     14  C   LIG    1      -36.828  73.095  27.363  0.00  0.00    +0.251 C 
ATOM     15  O   LIG    1      -37.813  73.167  28.061  0.00  0.00    -0.270 OA
BRANCH  14  16
ATOM     16  C   LIG    1      -35.496  73.484  27.896  0.00  0.00    +0.056 A 
ATOM     17  C   LIG    1      -34.654  72.627  28.597  0.00  0.00    +0.054 A 
ATOM     18 CL   LIG    1      -35.043  70.983  28.952  0.00  0.00    -0.083 Cl
ATOM     19  C   LIG    1      -33.437  73.098  29.081  0.00  0.00    +0.041 A 
ATOM     20  C   LIG    1      -33.039  74.430  28.886  0.00  0.00    +0.052 A 
ATOM     21 CL   LIG    1      -31.496  74.813  29.572  0.00  0.00    -0.083 Cl
ATOM     22  C   LIG    1      -33.849  75.337  28.174  0.00  0.00    +0.019 A 
ATOM     23  C   LIG    1      -35.089  74.826  27.700  0.00  0.00    +0.026 A 
BRANCH  22  24
ATOM     24  C   LIG    1      -33.499  76.751  27.861  0.00  0.00    +0.072 A 
ATOM     25  N   LIG    1      -32.674  76.910  26.791  0.00  0.00    -0.255 NA
ATOM     26  C   LIG    1      -32.313  78.170  26.439  0.00  0.00    +0.111 A 
ATOM     27  C   LIG    1      -32.738  79.306  27.099  0.00  0.00    +0.020 A 
ATOM     28  C   LIG    1      -33.583  79.144  28.182  0.00  0.00    +0.004 A 
ATOM     29  C   LIG    1      -33.973  77.860  28.561  0.00  0.00    +0.028 A 
ENDBRANCH  22  24
ENDBRANCH  14  16
ENDBRANCH   4  12
BRANCH   1  31
ATOM     30  N   LIG    1      -40.361  69.447  22.800  0.00  0.00    -0.247 NA
ATOM     31  C   LIG    1      -40.524  70.013  23.939  0.00  0.00    +0.236 C 
BRANCH  31  32
ATOM     32  O   LIG    1      -41.410  69.630  24.886  0.00  0.00    -0.491 OA
ATOM     33  H   LIG    1      -42.128  70.287  24.959  0.00  0.00    +0.294 HD
ENDBRANCH  31  32
BRANCH  30  34
ATOM     34  C   LIG    1      -41.152  68.280  22.402  0.00  0.00    +0.173 C 
BRANCH  34  35
ATOM     35  C   LIG    1      -42.380  68.701  21.586  0.00  0.00    +0.182 C 
BRANCH  35  37
ATOM     36  C   LIG    1      -42.721  70.619  20.224  0.00  0.00    +0.194 C 
ATOM     37  O   LIG    1      -41.927  69.469  20.465  0.00  0.00    -0.381 OA
ENDBRANCH  35  37
ENDBRANCH  34  35
ENDBRANCH  30  34
ENDBRANCH   1  31
TORSDOF 9
ENDMDL
MODEL 6
REMARK VINA RESULT:      -5.8      1.008      1.786
REMARK  Name = pdb/CHEMBL3934347.pdb
REMARK                            x       y       z     vdW  Elec       q    Type
REMARK                         _______ _______ _______ _____ _____    ______ ____
ROOT
ATOM      1  C   LIG    1      -26.176  77.718  13.927  0.00  0.00    +0.149 A 
ATOM      2  N   LIG    1      -25.064  77.813  14.668  0.00  0.00    -0.160 NA
ATOM      3  N   LIG    1      -24.577  79.063  14.444  0.00  0.00    -0.218 N 
ATOM      4  C   LIG    1      -25.438  79.804  13.614  0.00  0.00    +0.129 A 
ATOM      5  C   LIG    1      -26.458  78.946  13.291  0.00  0.00    +0.078 A 
ENDROOT
BRANCH   3   6
ATOM      6  C   LIG    1      -23.340  79.432  15.062  0.00  0.00    +0.067 A 
ATOM      7  C   LIG    1      -23.326  80.515  15.963  0.00  0.00    +0.028 A 
ATOM      8  C   LIG    1      -22.142  80.898  16.605  0.00  0.00    +0.002 A 
ATOM      9  C   LIG    1      -20.967  80.191  16.376  0.00  0.00    +0.000 A 
ATOM     10  C   LIG    1      -20.974  79.107  15.500  0.00  0.00    +0.002 A 
ATOM     11  C   LIG    1      -22.152  78.725  14.840  0.00  0.00    +0.028 A 
ENDBRANCH   3   6
BRANCH   4  12
ATOM     12  N   LIG    1      -25.363  81.140  13.220  0.00  0.00    -0.266 N 
ATOM     13  H   LIG    1      -26.059  81.779  13.599  0.00  0.00    +0.157 HD
ATOM     14  C   LIG    1      -24.436  81.653  12.231  0.00  0.00    +0.251 C 
ATOM     15  O   LIG    1      -23.650  80.936  11.656  0.00  0.00    -0.270 OA
BRANCH  14  16
ATOM     16  C   LIG    1      -24.447  83.118  11.976  0.00  0.00    +0.056 A 
ATOM     17  C   LIG    1      -25.340  83.757  11.122  0.00  0.00    +0.054 A 
ATOM     18 CL   LIG    1      -26.566  82.931  10.230  0.00  0.00    -0.083 Cl
ATOM     19  C   LIG    1      -25.248  85.132  10.928  0.00  0.00    +0.041 A 
ATOM     20  C   LIG    1      -24.261  85.896  11.572  0.00  0.00    +0.052 A 
ATOM     21 CL   LIG    1      -24.316  87.583  11.190  0.00  0.00    -0.083 Cl
ATOM     22  C   LIG    1      -23.338  85.301  12.455  0.00  0.00    +0.019 A 
ATOM     23  C   LIG    1      -23.455  83.893  12.624  0.00  0.00    +0.026 A 
BRANCH  22  24
ATOM     24  C   LIG    1      -22.292  86.024  13.232  0.00  0.00    +0.072 A 
ATOM     25  N   LIG    1      -21.052  86.003  12.675  0.00  0.00    -0.255 NA
ATOM     26  C   LIG    1      -20.046  86.644  13.321  0.00  0.00    +0.111 A 
ATOM     27  C   LIG    1      -20.205  87.326  14.512  0.00  0.00    +0.020 A 
ATOM     28  C   LIG    1      -21.469  87.352  15.074  0.00  0.00    +0.004 A 
ATOM     29  C   LIG    1      -22.521  86.705  14.427  0.00  0.00    +0.028 A 
ENDBRANCH  22  24
ENDBRANCH  14  16
ENDBRANCH   4  12
BRANCH   1  31
ATOM     30  N   LIG    1      -26.815  75.611  12.966  0.00  0.00    -0.247 NA
ATOM     31  C   LIG    1      -27.016  76.527  13.841  0.00  0.00    +0.236 C 
BRANCH  31  32
ATOM     32  O   LIG    1      -27.975  76.505  14.794  0.00  0.00    -0.491 OA
ATOM     33  H   LIG    1      -27.568  76.441  15.679  0.00  0.00    +0.294 HD
ENDBRANCH  31  32
BRANCH  30  34
ATOM     34  C   LIG    1      -27.642  74.402  12.916  0.00  0.00    +0.173 C 
BRANCH  34  35
ATOM     35  C   LIG    1      -28.443  74.338  11.610  0.00  0.00    +0.182 C 
BRANCH  35  37
ATOM     36  C   LIG    1      -29.863  76.167  11.072  0.00  0.00    +0.194 C 
ATOM     37  O   LIG    1      -29.705  74.980  11.831  0.00  0.00    -0.381 OA
ENDBRANCH  35  37
ENDBRANCH  34  35
ENDBRANCH  30  34
ENDBRANCH   1  31
TORSDOF 9
ENDMDL
MODEL 7
REMARK VINA RESULT:      -5.8     17.833     20.741
REMARK  Name = pdb/CHEMBL3934347.pdb
REMARK                            x       y       z     vdW  Elec       q    Type
REMARK                         _______ _______ _______ _____ _____    ______ ____
ROOT
ATOM      1  C   LIG    1      -37.218  80.023  27.605  0.00  0.00    +0.149 A 
ATOM      2  N   LIG    1      -36.166  79.342  28.077  0.00  0.00    -0.160 NA
ATOM      3  N   LIG    1      -36.428  78.033  27.818  0.00  0.00    -0.218 N 
ATOM      4  C   LIG    1      -37.626  77.887  27.094  0.00  0.00    +0.129 A 
ATOM      5  C   LIG    1      -38.124  79.157  26.957  0.00  0.00    +0.078 A 
ENDROOT
BRANCH   3   6
ATOM      6  C   LIG    1      -35.495  77.049  28.274  0.00  0.00    +0.067 A 
ATOM      7  C   LIG    1      -34.822  76.256  27.323  0.00  0.00    +0.028 A 
ATOM      8  C   LIG    1      -33.886  75.295  27.724  0.00  0.00    +0.002 A 
ATOM      9  C   LIG    1      -33.592  75.131  29.073  0.00  0.00    +0.000 A 
ATOM     10  C   LIG    1      -34.240  75.922  30.021  0.00  0.00    +0.002 A 
ATOM     11  C   LIG    1      -35.190  76.877  29.630  0.00  0.00    +0.028 A 
ENDBRANCH   3   6
BRANCH   4  12
ATOM     12  N   LIG    1      -38.204  76.739  26.552  0.00  0.00    -0.266 N 
ATOM     13  H   LIG    1      -38.781  76.170  27.170  0.00  0.00    +0.157 HD
ATOM     14  C   LIG    1      -37.955  76.247  25.212  0.00  0.00    +0.251 C 
ATOM     15  O   LIG    1      -37.198  76.809  24.454  0.00  0.00    -0.270 OA
BRANCH  14  16
ATOM     16  C   LIG    1      -38.705  75.042  24.773  0.00  0.00    +0.056 A 
ATOM     17  C   LIG    1      -39.989  75.072  24.238  0.00  0.00    +0.054 A 
ATOM     18 CL   LIG    1      -40.897  76.522  24.012  0.00  0.00    -0.083 Cl
ATOM     19  C   LIG    1      -40.618  73.881  23.884  0.00  0.00    +0.041 A 
ATOM     20  C   LIG    1      -39.987  72.640  24.065  0.00  0.00    +0.052 A 
ATOM     21 CL   LIG    1      -40.943  71.285  23.568  0.00  0.00    -0.083 Cl
ATOM     22  C   LIG    1      -38.684  72.553  24.593  0.00  0.00    +0.019 A 
ATOM     23  C   LIG    1      -38.073  73.787  24.951  0.00  0.00    +0.026 A 
BRANCH  22  24
ATOM     24  C   LIG    1      -37.903  71.298  24.772  0.00  0.00    +0.072 A 
ATOM     25  N   LIG    1      -37.365  71.131  26.011  0.00  0.00    -0.255 NA
ATOM     26  C   LIG    1      -36.643  70.009  26.254  0.00  0.00    +0.111 A 
ATOM     27  C   LIG    1      -36.425  69.016  25.319  0.00  0.00    +0.020 A 
ATOM     28  C   LIG    1      -36.978  69.182  24.062  0.00  0.00    +0.004 A 
ATOM     29  C   LIG    1      -37.728  70.325  23.789  0.00  0.00    +0.028 A 
ENDBRANCH  22  24
ENDBRANCH  14  16
ENDBRANCH   4  12
BRANCH   1  31
ATOM     30  N   LIG    1      -36.369  82.265  27.763  0.00  0.00    -0.247 NA
ATOM     31  C   LIG    1      -37.375  81.473  27.695  0.00  0.00    +0.236 C 
BRANCH  31  32
ATOM     32  O   LIG    1      -38.672  81.852  27.665  0.00  0.00    -0.491 OA
ATOM     33  H   LIG    1      -39.229  81.118  27.341  0.00  0.00    +0.294 HD
ENDBRANCH  31  32
BRANCH  30  34
ATOM     34  C   LIG    1      -36.539  83.720  27.814  0.00  0.00    +0.173 C 
BRANCH  34  35
ATOM     35  C   LIG    1      -36.431  84.336  26.414  0.00  0.00    +0.182 C 
BRANCH  35  37
ATOM     36  C   LIG    1      -37.569  83.532  24.488  0.00  0.00    +0.194 C 
ATOM     37  O   LIG    1      -37.690  84.161  25.753  0.00  0.00    -0.381 OA
ENDBRANCH  35  37
ENDBRANCH  34  35
ENDBRANCH  30  34
ENDBRANCH   1  31
TORSDOF 9
ENDMDL
MODEL 8
REMARK VINA RESULT:      -5.7     13.742     18.368
REMARK  Name = pdb/CHEMBL3934347.pdb
REMARK                            x       y       z     vdW  Elec       q    Type
REMARK                         _______ _______ _______ _____ _____    ______ ____
ROOT
ATOM      1  C   LIG    1      -27.132  65.925  19.337  0.00  0.00    +0.149 A 
ATOM      2  N   LIG    1      -27.064  67.187  18.892  0.00  0.00    -0.160 NA
ATOM      3  N   LIG    1      -28.345  67.643  18.879  0.00  0.00    -0.218 N 
ATOM      4  C   LIG    1      -29.232  66.685  19.403  0.00  0.00    +0.129 A 
ATOM      5  C   LIG    1      -28.455  65.594  19.698  0.00  0.00    +0.078 A 
ENDROOT
BRANCH   3   6
ATOM      6  C   LIG    1      -28.593  68.961  18.381  0.00  0.00    +0.067 A 
ATOM      7  C   LIG    1      -29.154  69.109  17.096  0.00  0.00    +0.028 A 
ATOM      8  C   LIG    1      -29.431  70.379  16.577  0.00  0.00    +0.002 A 
ATOM      9  C   LIG    1      -29.176  71.513  17.340  0.00  0.00    +0.000 A 
ATOM     10  C   LIG    1      -28.637  71.377  18.618  0.00  0.00    +0.002 A 
ATOM     11  C   LIG    1      -28.342  70.110  19.142  0.00  0.00    +0.028 A 
ENDBRANCH   3   6
BRANCH   4  12
ATOM     12  N   LIG    1      -30.601  66.782  19.653  0.00  0.00    -0.266 N 
ATOM     13  H   LIG    1      -30.914  67.547  20.249  0.00  0.00    +0.157 HD
ATOM     14  C   LIG    1      -31.587  65.814  19.216  0.00  0.00    +0.251 C 
ATOM     15  O   LIG    1      -31.279  64.821  18.596  0.00  0.00    -0.270 OA
BRANCH  14  16
ATOM     16  C   LIG    1      -33.014  66.105  19.514  0.00  0.00    +0.056 A 
ATOM     17  C   LIG    1      -34.004  66.234  18.546  0.00  0.00    +0.054 A 
ATOM     18 CL   LIG    1      -33.711  66.077  16.852  0.00  0.00    -0.083 Cl
ATOM     19  C   LIG    1      -35.308  66.539  18.927  0.00  0.00    +0.041 A 
ATOM     20  C   LIG    1      -35.648  66.730  20.276  0.00  0.00    +0.052 A 
ATOM     21 CL   LIG    1      -37.318  67.106  20.534  0.00  0.00    -0.083 Cl
ATOM     22  C   LIG    1      -34.686  66.601  21.297  0.00  0.00    +0.019 A 
ATOM     23  C   LIG    1      -33.363  66.297  20.873  0.00  0.00    +0.026 A 
BRANCH  22  24
ATOM     24  C   LIG    1      -34.951  66.725  22.758  0.00  0.00    +0.072 A 
ATOM     25  N   LIG    1      -34.772  67.974  23.266  0.00  0.00    -0.255 NA
ATOM     26  C   LIG    1      -34.998  68.169  24.590  0.00  0.00    +0.111 A 
ATOM     27  C   LIG    1      -35.408  67.174  25.456  0.00  0.00    +0.020 A 
ATOM     28  C   LIG    1      -35.598  65.906  24.937  0.00  0.00    +0.004 A 
ATOM     29  C   LIG    1      -35.377  65.681  23.578  0.00  0.00    +0.028 A 
ENDBRANCH  22  24
ENDBRANCH  14  16
ENDBRANCH   4  12
BRANCH   1  31
ATOM     30  N   LIG    1      -25.045  64.979  18.613  0.00  0.00    -0.247 NA
ATOM     31  C   LIG    1      -25.983  65.036  19.486  0.00  0.00    +0.236 C 
BRANCH  31  32
ATOM     32  O   LIG    1      -26.024  64.334  20.641  0.00  0.00    -0.491 OA
ATOM     33  H   LIG    1      -26.589  63.545  20.533  0.00  0.00    +0.294 HD
ENDBRANCH  31  32
BRANCH  30  34
ATOM     34  C   LIG    1      -23.878  64.110  18.794  0.00  0.00    +0.173 C 
BRANCH  34  35
ATOM     35  C   LIG    1      -22.619  64.935  19.085  0.00  0.00    +0.182 C 
BRANCH  35  37
ATOM     36  C   LIG    1      -22.501  63.765  21.151  0.00  0.00    +0.194 C 
ATOM     37  O   LIG    1      -22.467  65.027  20.507  0.00  0.00    -0.381 OA
ENDBRANCH  35  37
ENDBRANCH  34  35
ENDBRANCH  30  34
ENDBRANCH   1  31
TORSDOF 9
ENDMDL
MODEL 9
REMARK VINA RESULT:      -5.7     17.945     19.899
REMARK  Name = pdb/CHEMBL3934347.pdb
REMARK                            x       y       z     vdW  Elec       q    Type
REMARK                         _______ _______ _______ _____ _____    ______ ____
ROOT
ATOM      1  C   LIG    1      -35.191  66.582  21.792  0.00  0.00    +0.149 A 
ATOM      2  N   LIG    1      -34.699  66.616  23.038  0.00  0.00    -0.160 NA
ATOM      3  N   LIG    1      -35.217  67.736  23.609  0.00  0.00    -0.218 N 
ATOM      4  C   LIG    1      -36.119  68.379  22.741  0.00  0.00    +0.129 A 
ATOM      5  C   LIG    1      -36.103  67.638  21.587  0.00  0.00    +0.078 A 
ENDROOT
BRANCH   3   6
ATOM      6  C   LIG    1      -34.810  68.072  24.938  0.00  0.00    +0.067 A 
ATOM      7  C   LIG    1      -34.602  67.035  25.870  0.00  0.00    +0.028 A 
ATOM      8  C   LIG    1      -34.184  67.317  27.176  0.00  0.00    +0.002 A 
ATOM      9  C   LIG    1      -33.945  68.631  27.561  0.00  0.00    +0.000 A 
ATOM     10  C   LIG    1      -34.132  69.663  26.643  0.00  0.00    +0.002 A 
ATOM     11  C   LIG    1      -34.564  69.392  25.336  0.00  0.00    +0.028 A 
ENDBRANCH   3   6
BRANCH   4  12
ATOM     12  N   LIG    1      -36.930  69.492  22.966  0.00  0.00    -0.266 N 
ATOM     13  H   LIG    1      -36.655  70.367  22.524  0.00  0.00    +0.157 HD
ATOM     14  C   LIG    1      -38.067  69.512  23.865  0.00  0.00    +0.251 C 
ATOM     15  O   LIG    1      -38.392  68.542  24.509  0.00  0.00    -0.270 OA
BRANCH  14  16
ATOM     16  C   LIG    1      -38.862  70.766  23.937  0.00  0.00    +0.056 A 
ATOM     17  C   LIG    1      -40.121  70.927  23.368  0.00  0.00    +0.054 A 
ATOM     18 CL   LIG    1      -40.939  69.687  22.490  0.00  0.00    -0.083 Cl
ATOM     19  C   LIG    1      -40.772  72.154  23.465  0.00  0.00    +0.041 A 
ATOM     20  C   LIG    1      -40.179  73.245  24.121  0.00  0.00    +0.052 A 
ATOM     21 CL   LIG    1      -41.150  74.678  24.125  0.00  0.00    -0.083 Cl
ATOM     22  C   LIG    1      -38.910  73.133  24.724  0.00  0.00    +0.019 A 
ATOM     23  C   LIG    1      -38.270  71.869  24.599  0.00  0.00    +0.026 A 
BRANCH  22  24
ATOM     24  C   LIG    1      -38.217  74.206  25.491  0.00  0.00    +0.072 A 
ATOM     25  N   LIG    1      -37.874  75.300  24.760  0.00  0.00    -0.255 NA
ATOM     26  C   LIG    1      -37.244  76.323  25.389  0.00  0.00    +0.111 A 
ATOM     27  C   LIG    1      -36.933  76.325  26.735  0.00  0.00    +0.020 A 
ATOM     28  C   LIG    1      -37.289  75.215  27.480  0.00  0.00    +0.004 A 
ATOM     29  C   LIG    1      -37.942  74.153  26.857  0.00  0.00    +0.028 A 
ENDBRANCH  22  24
ENDBRANCH  14  16
ENDBRANCH   4  12
BRANCH   1  31
ATOM     30  N   LIG    1      -33.681  65.369  20.370  0.00  0.00    -0.247 NA
ATOM     31  C   LIG    1      -34.874  65.555  20.803  0.00  0.00    +0.236 C 
BRANCH  31  32
ATOM     32  O   LIG    1      -35.960  64.834  20.445  0.00  0.00    -0.491 OA
ATOM     33  H   LIG    1      -36.057  64.060  21.033  0.00  0.00    +0.294 HD
ENDBRANCH  31  32
BRANCH  30  34
ATOM     34  C   LIG    1      -33.370  64.309  19.406  0.00  0.00    +0.173 C 
BRANCH  34  35
ATOM     35  C   LIG    1      -32.488  64.841  18.271  0.00  0.00    +0.182 C 
BRANCH  35  37
ATOM     36  C   LIG    1      -30.373  65.762  18.846  0.00  0.00    +0.194 C 
ATOM     37  O   LIG    1      -31.121  64.581  18.612  0.00  0.00    -0.381 OA
ENDBRANCH  35  37
ENDBRANCH  34  35
ENDBRANCH  30  34
ENDBRANCH   1  31
TORSDOF 9
ENDMDL
