MODEL 1
REMARK VINA RESULT:      -6.5      0.000      0.000
REMARK  Name = pdb/CHEMBL3957376.pdb
REMARK                            x       y       z     vdW  Elec       q    Type
REMARK                         _______ _______ _______ _____ _____    ______ ____
ROOT
ATOM      1  C   LIG    1      -33.337  73.410  29.207  0.00  0.00    +0.042 A 
ATOM      2  C   LIG    1      -34.105  73.171  28.055  0.00  0.00    +0.042 A 
ATOM      3  C   LIG    1      -34.927  72.034  27.942  0.00  0.00    +0.086 A 
ATOM      4  C   LIG    1      -34.945  71.194  29.055  0.00  0.00    +0.138 A 
ATOM      5  N   LIG    1      -34.234  71.386  30.193  0.00  0.00    -0.260 NA
ATOM      6  C   LIG    1      -33.487  72.509  30.254  0.00  0.00    +0.122 A 
ENDROOT
BRANCH   1   7
ATOM      7  C   LIG    1      -32.432  74.591  29.306  0.00  0.00    +0.197 C 
ATOM      8  O   LIG    1      -31.221  74.381  29.487  0.00  0.00    -0.287 OA
BRANCH   7  17
ATOM      9  N   LIG    1      -34.205  77.810  29.637  0.00  0.00    -0.336 N 
ATOM     10  C   LIG    1      -33.507  78.078  28.468  0.00  0.00    +0.089 A 
ATOM     11  C   LIG    1      -33.411  79.201  27.639  0.00  0.00    +0.165 A 
ATOM     12  F   LIG    1      -33.991  80.371  27.923  0.00  0.00    -0.202 F 
ATOM     13  C   LIG    1      -32.637  79.081  26.497  0.00  0.00    +0.151 A 
ATOM     14  N   LIG    1      -31.979  77.963  26.129  0.00  0.00    -0.260 NA
ATOM     15  C   LIG    1      -32.045  76.877  26.941  0.00  0.00    +0.121 A 
ATOM     16  C   LIG    1      -32.789  76.909  28.138  0.00  0.00    +0.032 A 
ATOM     17  C   LIG    1      -32.967  75.960  29.199  0.00  0.00    +0.049 A 
ATOM     18  C   LIG    1      -33.674  76.654  30.168  0.00  0.00    +0.099 A 
BRANCH   9  20
ATOM     19  C   LIG    1      -35.919  77.756  31.446  0.00  0.00    +0.036 C 
ATOM     20  C   LIG    1      -35.348  78.547  30.248  0.00  0.00    +0.063 C 
ATOM     21  C   LIG    1      -36.453  78.815  29.209  0.00  0.00    +0.036 C 
BRANCH  20  22
ATOM     22  C   LIG    1      -34.932  79.959  30.806  0.00  0.00    +0.183 C 
BRANCH  22  23
ATOM     23  O   LIG    1      -34.380  79.882  32.121  0.00  0.00    -0.393 OA
ATOM     24  H   LIG    1      -34.821  80.557  32.668  0.00  0.00    +0.209 HD
ENDBRANCH  22  23
ENDBRANCH  20  22
ENDBRANCH   9  20
ENDBRANCH   7  17
ENDBRANCH   1   7
BRANCH   3  25
ATOM     25  N   LIG    1      -35.672  71.913  26.758  0.00  0.00    -0.216 NA
ATOM     26  C   LIG    1      -36.948  71.940  26.575  0.00  0.00    +0.192 C 
BRANCH  26  27
ATOM     27  O   LIG    1      -37.905  72.011  27.524  0.00  0.00    -0.495 OA
ATOM     28  H   LIG    1      -38.051  72.912  27.835  0.00  0.00    +0.293 HD
ENDBRANCH  26  27
BRANCH  26  29
ATOM     29  C   LIG    1      -37.559  71.785  25.197  0.00  0.00    +0.130 C 
BRANCH  29  30
ATOM     30  C   LIG    1      -38.487  72.925  24.819  0.00  0.00    -0.038 A 
ATOM     31  C   LIG    1      -38.102  74.269  24.953  0.00  0.00    +0.016 A 
ATOM     32  C   LIG    1      -38.944  75.322  24.560  0.00  0.00    +0.055 A 
ATOM     33  C   LIG    1      -40.194  75.016  24.014  0.00  0.00    +0.012 A 
ATOM     34  C   LIG    1      -40.588  73.686  23.862  0.00  0.00    +0.001 A 
ATOM     35  C   LIG    1      -39.740  72.647  24.256  0.00  0.00    +0.004 A 
BRANCH  32  36
ATOM     36  C   LIG    1      -38.477  76.746  24.725  0.00  0.00    +0.417 C 
ATOM     37  F   LIG    1      -39.511  77.633  24.738  0.00  0.00    -0.166 F 
ATOM     38  F   LIG    1      -37.661  77.149  23.709  0.00  0.00    -0.166 F 
ATOM     39  F   LIG    1      -37.781  76.967  25.874  0.00  0.00    -0.166 F 
ENDBRANCH  32  36
ENDBRANCH  29  30
ENDBRANCH  26  29
ENDBRANCH   3  25
TORSDOF 10
ENDMDL
MODEL 2
REMARK VINA RESULT:      -6.4     11.479     15.777
REMARK  Name = pdb/CHEMBL3957376.pdb
REMARK                            x       y       z     vdW  Elec       q    Type
REMARK                         _______ _______ _______ _____ _____    ______ ____
ROOT
ATOM      1  C   LIG    1      -20.449  76.913  30.571  0.00  0.00    +0.042 A 
ATOM      2  C   LIG    1      -20.540  77.767  31.682  0.00  0.00    +0.042 A 
ATOM      3  C   LIG    1      -19.392  78.210  32.365  0.00  0.00    +0.086 A 
ATOM      4  C   LIG    1      -18.177  77.771  31.843  0.00  0.00    +0.138 A 
ATOM      5  N   LIG    1      -18.034  76.959  30.768  0.00  0.00    -0.260 NA
ATOM      6  C   LIG    1      -19.169  76.590  30.137  0.00  0.00    +0.122 A 
ENDROOT
BRANCH   1   7
ATOM      7  C   LIG    1      -21.668  76.408  29.877  0.00  0.00    +0.197 C 
ATOM      8  O   LIG    1      -21.719  76.517  28.641  0.00  0.00    -0.287 OA
BRANCH   7  17
ATOM      9  N   LIG    1      -24.002  74.277  31.780  0.00  0.00    -0.336 N 
ATOM     10  C   LIG    1      -24.813  75.394  31.637  0.00  0.00    +0.089 A 
ATOM     11  C   LIG    1      -26.100  75.713  32.082  0.00  0.00    +0.165 A 
ATOM     12  F   LIG    1      -26.815  74.920  32.885  0.00  0.00    -0.202 F 
ATOM     13  C   LIG    1      -26.620  76.937  31.691  0.00  0.00    +0.151 A 
ATOM     14  N   LIG    1      -25.977  77.832  30.914  0.00  0.00    -0.260 NA
ATOM     15  C   LIG    1      -24.717  77.541  30.500  0.00  0.00    +0.121 A 
ATOM     16  C   LIG    1      -24.093  76.331  30.864  0.00  0.00    +0.032 A 
ATOM     17  C   LIG    1      -22.776  75.809  30.641  0.00  0.00    +0.049 A 
ATOM     18  C   LIG    1      -22.731  74.649  31.399  0.00  0.00    +0.099 A 
BRANCH   9  20
ATOM     19  C   LIG    1      -25.552  72.366  31.379  0.00  0.00    +0.036 C 
ATOM     20  C   LIG    1      -24.362  72.895  32.208  0.00  0.00    +0.063 C 
ATOM     21  C   LIG    1      -24.696  72.850  33.711  0.00  0.00    +0.036 C 
BRANCH  20  22
ATOM     22  C   LIG    1      -23.185  71.869  32.001  0.00  0.00    +0.183 C 
BRANCH  22  23
ATOM     23  O   LIG    1      -23.369  71.061  30.837  0.00  0.00    -0.393 OA
ATOM     24  H   LIG    1      -22.906  71.497  30.099  0.00  0.00    +0.209 HD
ENDBRANCH  22  23
ENDBRANCH  20  22
ENDBRANCH   9  20
ENDBRANCH   7  17
ENDBRANCH   1   7
BRANCH   3  25
ATOM     25  N   LIG    1      -19.602  79.085  33.444  0.00  0.00    -0.216 NA
ATOM     26  C   LIG    1      -19.501  78.875  34.713  0.00  0.00    +0.192 C 
BRANCH  26  27
ATOM     27  O   LIG    1      -19.241  77.701  35.325  0.00  0.00    -0.495 OA
ATOM     28  H   LIG    1      -19.595  76.946  34.843  0.00  0.00    +0.293 HD
ENDBRANCH  26  27
BRANCH  26  29
ATOM     29  C   LIG    1      -19.778  79.967  35.725  0.00  0.00    +0.130 C 
BRANCH  29  30
ATOM     30  C   LIG    1      -21.219  80.444  35.719  0.00  0.00    -0.038 A 
ATOM     31  C   LIG    1      -22.287  79.571  35.446  0.00  0.00    +0.016 A 
ATOM     32  C   LIG    1      -23.622  80.001  35.486  0.00  0.00    +0.055 A 
ATOM     33  C   LIG    1      -23.890  81.334  35.813  0.00  0.00    +0.012 A 
ATOM     34  C   LIG    1      -22.844  82.212  36.098  0.00  0.00    +0.001 A 
ATOM     35  C   LIG    1      -21.518  81.770  36.057  0.00  0.00    +0.004 A 
BRANCH  32  36
ATOM     36  C   LIG    1      -24.727  79.019  35.187  0.00  0.00    +0.417 C 
ATOM     37  F   LIG    1      -24.500  77.798  35.746  0.00  0.00    -0.166 F 
ATOM     38  F   LIG    1      -24.874  78.790  33.851  0.00  0.00    -0.166 F 
ATOM     39  F   LIG    1      -25.949  79.414  35.637  0.00  0.00    -0.166 F 
ENDBRANCH  32  36
ENDBRANCH  29  30
ENDBRANCH  26  29
ENDBRANCH   3  25
TORSDOF 10
ENDMDL
MODEL 3
REMARK VINA RESULT:      -6.3     17.157     19.964
REMARK  Name = pdb/CHEMBL3957376.pdb
REMARK                            x       y       z     vdW  Elec       q    Type
REMARK                         _______ _______ _______ _____ _____    ______ ____
ROOT
ATOM      1  C   LIG    1      -23.552  81.069  15.138  0.00  0.00    +0.042 A 
ATOM      2  C   LIG    1      -23.551  79.676  15.320  0.00  0.00    +0.042 A 
ATOM      3  C   LIG    1      -24.483  78.848  14.667  0.00  0.00    +0.086 A 
ATOM      4  C   LIG    1      -25.372  79.501  13.814  0.00  0.00    +0.138 A 
ATOM      5  N   LIG    1      -25.407  80.838  13.594  0.00  0.00    -0.260 NA
ATOM      6  C   LIG    1      -24.470  81.577  14.226  0.00  0.00    +0.122 A 
ENDROOT
BRANCH   1   7
ATOM      7  C   LIG    1      -22.593  81.948  15.865  0.00  0.00    +0.197 C 
ATOM      8  O   LIG    1      -22.500  81.811  17.097  0.00  0.00    -0.287 OA
BRANCH   7  17
ATOM      9  N   LIG    1      -21.219  84.890  14.114  0.00  0.00    -0.336 N 
ATOM     10  C   LIG    1      -20.164  84.012  13.902  0.00  0.00    +0.089 A 
ATOM     11  C   LIG    1      -18.919  84.136  13.276  0.00  0.00    +0.165 A 
ATOM     12  F   LIG    1      -18.457  85.291  12.788  0.00  0.00    -0.202 F 
ATOM     13  C   LIG    1      -18.129  83.000  13.210  0.00  0.00    +0.151 A 
ATOM     14  N   LIG    1      -18.477  81.792  13.699  0.00  0.00    -0.260 NA
ATOM     15  C   LIG    1      -19.671  81.670  14.331  0.00  0.00    +0.121 A 
ATOM     16  C   LIG    1      -20.536  82.774  14.470  0.00  0.00    +0.032 A 
ATOM     17  C   LIG    1      -21.792  82.950  15.142  0.00  0.00    +0.049 A 
ATOM     18  C   LIG    1      -22.044  84.310  15.053  0.00  0.00    +0.099 A 
BRANCH   9  20
ATOM     19  C   LIG    1      -22.875  86.743  13.928  0.00  0.00    +0.036 C 
ATOM     20  C   LIG    1      -21.506  86.200  13.463  0.00  0.00    +0.063 C 
ATOM     21  C   LIG    1      -21.473  86.075  11.929  0.00  0.00    +0.036 C 
BRANCH  20  22
ATOM     22  C   LIG    1      -20.444  87.304  13.826  0.00  0.00    +0.183 C 
BRANCH  22  23
ATOM     23  O   LIG    1      -20.131  87.320  15.220  0.00  0.00    -0.393 OA
ATOM     24  H   LIG    1      -19.168  87.443  15.306  0.00  0.00    +0.209 HD
ENDBRANCH  22  23
ENDBRANCH  20  22
ENDBRANCH   9  20
ENDBRANCH   7  17
ENDBRANCH   1   7
BRANCH   3  25
ATOM     25  N   LIG    1      -24.370  77.468  14.901  0.00  0.00    -0.216 NA
ATOM     26  C   LIG    1      -23.904  76.534  14.143  0.00  0.00    +0.192 C 
BRANCH  26  27
ATOM     27  O   LIG    1      -23.475  76.657  12.870  0.00  0.00    -0.495 OA
ATOM     28  H   LIG    1      -23.990  76.125  12.253  0.00  0.00    +0.293 HD
ENDBRANCH  26  27
BRANCH  26  29
ATOM     29  C   LIG    1      -23.874  75.086  14.590  0.00  0.00    +0.130 C 
BRANCH  29  30
ATOM     30  C   LIG    1      -22.700  74.760  15.495  0.00  0.00    -0.038 A 
ATOM     31  C   LIG    1      -22.830  73.893  16.594  0.00  0.00    +0.016 A 
ATOM     32  C   LIG    1      -21.733  73.555  17.402  0.00  0.00    +0.055 A 
ATOM     33  C   LIG    1      -20.480  74.093  17.095  0.00  0.00    +0.012 A 
ATOM     34  C   LIG    1      -20.329  74.945  16.000  0.00  0.00    +0.001 A 
ATOM     35  C   LIG    1      -21.429  75.272  15.202  0.00  0.00    +0.004 A 
BRANCH  32  36
ATOM     36  C   LIG    1      -21.932  72.619  18.567  0.00  0.00    +0.417 C 
ATOM     37  F   LIG    1      -22.875  73.070  19.440  0.00  0.00    -0.166 F 
ATOM     38  F   LIG    1      -20.796  72.456  19.305  0.00  0.00    -0.166 F 
ATOM     39  F   LIG    1      -22.326  71.367  18.205  0.00  0.00    -0.166 F 
ENDBRANCH  32  36
ENDBRANCH  29  30
ENDBRANCH  26  29
ENDBRANCH   3  25
TORSDOF 10
ENDMDL
MODEL 4
REMARK VINA RESULT:      -6.1      3.870      7.003
REMARK  Name = pdb/CHEMBL3957376.pdb
REMARK                            x       y       z     vdW  Elec       q    Type
REMARK                         _______ _______ _______ _____ _____    ______ ____
ROOT
ATOM      1  C   LIG    1      -37.458  82.201  27.001  0.00  0.00    +0.042 A 
ATOM      2  C   LIG    1      -38.081  81.077  26.435  0.00  0.00    +0.042 A 
ATOM      3  C   LIG    1      -39.248  81.196  25.658  0.00  0.00    +0.086 A 
ATOM      4  C   LIG    1      -39.713  82.497  25.469  0.00  0.00    +0.138 A 
ATOM      5  N   LIG    1      -39.143  83.614  25.981  0.00  0.00    -0.260 NA
ATOM      6  C   LIG    1      -38.009  83.440  26.694  0.00  0.00    +0.122 A 
ENDROOT
BRANCH   1   7
ATOM      7  C   LIG    1      -36.248  82.068  27.861  0.00  0.00    +0.197 C 
ATOM      8  O   LIG    1      -35.676  83.109  28.224  0.00  0.00    -0.287 OA
BRANCH   7  17
ATOM      9  N   LIG    1      -34.507  78.840  28.268  0.00  0.00    -0.336 N 
ATOM     10  C   LIG    1      -35.510  78.654  29.210  0.00  0.00    +0.089 A 
ATOM     11  C   LIG    1      -35.810  77.622  30.105  0.00  0.00    +0.165 A 
ATOM     12  F   LIG    1      -35.034  76.547  30.271  0.00  0.00    -0.202 F 
ATOM     13  C   LIG    1      -36.953  77.765  30.875  0.00  0.00    +0.151 A 
ATOM     14  N   LIG    1      -37.791  78.820  30.818  0.00  0.00    -0.260 NA
ATOM     15  C   LIG    1      -37.492  79.838  29.972  0.00  0.00    +0.121 A 
ATOM     16  C   LIG    1      -36.338  79.796  29.163  0.00  0.00    +0.032 A 
ATOM     17  C   LIG    1      -35.748  80.739  28.257  0.00  0.00    +0.049 A 
ATOM     18  C   LIG    1      -34.533  80.170  27.908  0.00  0.00    +0.099 A 
BRANCH   9  20
ATOM     19  C   LIG    1      -34.355  76.651  27.085  0.00  0.00    +0.036 C 
ATOM     20  C   LIG    1      -33.570  77.845  27.672  0.00  0.00    +0.063 C 
ATOM     21  C   LIG    1      -32.549  77.352  28.714  0.00  0.00    +0.036 C 
BRANCH  20  22
ATOM     22  C   LIG    1      -32.721  78.442  26.488  0.00  0.00    +0.183 C 
BRANCH  22  23
ATOM     23  O   LIG    1      -31.736  77.526  26.010  0.00  0.00    -0.393 OA
ATOM     24  H   LIG    1      -31.986  76.636  26.317  0.00  0.00    +0.209 HD
ENDBRANCH  22  23
ENDBRANCH  20  22
ENDBRANCH   9  20
ENDBRANCH   7  17
ENDBRANCH   1   7
BRANCH   3  25
ATOM     25  N   LIG    1      -39.768  80.008  25.118  0.00  0.00    -0.216 NA
ATOM     26  C   LIG    1      -39.654  79.518  23.931  0.00  0.00    +0.192 C 
BRANCH  26  27
ATOM     27  O   LIG    1      -39.053  80.092  22.867  0.00  0.00    -0.495 OA
ATOM     28  H   LIG    1      -39.045  81.054  22.922  0.00  0.00    +0.293 HD
ENDBRANCH  26  27
BRANCH  26  29
ATOM     29  C   LIG    1      -40.304  78.204  23.546  0.00  0.00    +0.130 C 
BRANCH  29  30
ATOM     30  C   LIG    1      -39.552  76.988  24.054  0.00  0.00    -0.038 A 
ATOM     31  C   LIG    1      -40.086  75.692  23.955  0.00  0.00    +0.016 A 
ATOM     32  C   LIG    1      -39.370  74.563  24.382  0.00  0.00    +0.055 A 
ATOM     33  C   LIG    1      -38.088  74.740  24.913  0.00  0.00    +0.012 A 
ATOM     34  C   LIG    1      -37.537  76.018  25.007  0.00  0.00    +0.001 A 
ATOM     35  C   LIG    1      -38.260  77.134  24.576  0.00  0.00    +0.004 A 
BRANCH  32  36
ATOM     36  C   LIG    1      -39.992  73.196  24.250  0.00  0.00    +0.417 C 
ATOM     37  F   LIG    1      -40.912  73.140  23.246  0.00  0.00    -0.166 F 
ATOM     38  F   LIG    1      -40.657  72.813  25.378  0.00  0.00    -0.166 F 
ATOM     39  F   LIG    1      -39.095  72.206  23.990  0.00  0.00    -0.166 F 
ENDBRANCH  32  36
ENDBRANCH  29  30
ENDBRANCH  26  29
ENDBRANCH   3  25
TORSDOF 10
ENDMDL
MODEL 5
REMARK VINA RESULT:      -6.1      3.161      5.740
REMARK  Name = pdb/CHEMBL3957376.pdb
REMARK                            x       y       z     vdW  Elec       q    Type
REMARK                         _______ _______ _______ _____ _____    ______ ____
ROOT
ATOM      1  C   LIG    1      -38.532  79.136  27.822  0.00  0.00    +0.042 A 
ATOM      2  C   LIG    1      -39.306  78.300  27.001  0.00  0.00    +0.042 A 
ATOM      3  C   LIG    1      -40.102  78.821  25.963  0.00  0.00    +0.086 A 
ATOM      4  C   LIG    1      -40.039  80.203  25.796  0.00  0.00    +0.138 A 
ATOM      5  N   LIG    1      -39.300  81.051  26.551  0.00  0.00    -0.260 NA
ATOM      6  C   LIG    1      -38.535  80.491  27.512  0.00  0.00    +0.122 A 
ENDROOT
BRANCH   1   7
ATOM      7  C   LIG    1      -37.725  78.586  28.949  0.00  0.00    +0.197 C 
ATOM      8  O   LIG    1      -38.183  78.696  30.099  0.00  0.00    -0.287 OA
BRANCH   7  17
ATOM      9  N   LIG    1      -34.765  76.395  28.735  0.00  0.00    -0.336 N 
ATOM     10  C   LIG    1      -34.228  77.526  28.135  0.00  0.00    +0.089 A 
ATOM     11  C   LIG    1      -32.986  77.813  27.560  0.00  0.00    +0.165 A 
ATOM     12  F   LIG    1      -32.020  76.902  27.410  0.00  0.00    -0.202 F 
ATOM     13  C   LIG    1      -32.787  79.103  27.094  0.00  0.00    +0.151 A 
ATOM     14  N   LIG    1      -33.701  80.093  27.160  0.00  0.00    -0.260 NA
ATOM     15  C   LIG    1      -34.918  79.815  27.692  0.00  0.00    +0.121 A 
ATOM     16  C   LIG    1      -35.224  78.526  28.172  0.00  0.00    +0.032 A 
ATOM     17  C   LIG    1      -36.424  77.942  28.700  0.00  0.00    +0.049 A 
ATOM     18  C   LIG    1      -36.125  76.595  28.829  0.00  0.00    +0.099 A 
BRANCH   9  20
ATOM     19  C   LIG    1      -35.049  74.318  30.084  0.00  0.00    +0.036 C 
ATOM     20  C   LIG    1      -34.074  75.179  29.251  0.00  0.00    +0.063 C 
ATOM     21  C   LIG    1      -32.842  75.557  30.095  0.00  0.00    +0.036 C 
BRANCH  20  22
ATOM     22  C   LIG    1      -33.536  74.251  28.099  0.00  0.00    +0.183 C 
BRANCH  22  23
ATOM     23  O   LIG    1      -34.580  73.508  27.468  0.00  0.00    -0.393 OA
ATOM     24  H   LIG    1      -34.959  72.906  28.133  0.00  0.00    +0.209 HD
ENDBRANCH  22  23
ENDBRANCH  20  22
ENDBRANCH   9  20
ENDBRANCH   7  17
ENDBRANCH   1   7
BRANCH   3  25
ATOM     25  N   LIG    1      -40.811  77.889  25.187  0.00  0.00    -0.216 NA
ATOM     26  C   LIG    1      -40.600  77.484  23.982  0.00  0.00    +0.192 C 
BRANCH  26  27
ATOM     27  O   LIG    1      -39.663  77.936  23.123  0.00  0.00    -0.495 OA
ATOM     28  H   LIG    1      -39.804  77.624  22.222  0.00  0.00    +0.293 HD
ENDBRANCH  26  27
BRANCH  26  29
ATOM     29  C   LIG    1      -41.498  76.460  23.317  0.00  0.00    +0.130 C 
BRANCH  29  30
ATOM     30  C   LIG    1      -41.048  75.028  23.544  0.00  0.00    -0.038 A 
ATOM     31  C   LIG    1      -39.841  74.725  24.196  0.00  0.00    +0.016 A 
ATOM     32  C   LIG    1      -39.448  73.401  24.447  0.00  0.00    +0.055 A 
ATOM     33  C   LIG    1      -40.289  72.361  24.039  0.00  0.00    +0.012 A 
ATOM     34  C   LIG    1      -41.497  72.643  23.400  0.00  0.00    +0.001 A 
ATOM     35  C   LIG    1      -41.878  73.966  23.159  0.00  0.00    +0.004 A 
BRANCH  32  36
ATOM     36  C   LIG    1      -38.143  73.136  25.154  0.00  0.00    +0.417 C 
ATOM     37  F   LIG    1      -38.317  72.476  26.333  0.00  0.00    -0.166 F 
ATOM     38  F   LIG    1      -37.478  74.284  25.470  0.00  0.00    -0.166 F 
ATOM     39  F   LIG    1      -37.269  72.384  24.431  0.00  0.00    -0.166 F 
ENDBRANCH  32  36
ENDBRANCH  29  30
ENDBRANCH  26  29
ENDBRANCH   3  25
TORSDOF 10
ENDMDL
MODEL 6
REMARK VINA RESULT:      -6.0      2.200      3.466
REMARK  Name = pdb/CHEMBL3957376.pdb
REMARK                            x       y       z     vdW  Elec       q    Type
REMARK                         _______ _______ _______ _____ _____    ______ ____
ROOT
ATOM      1  C   LIG    1      -35.319  71.790  27.530  0.00  0.00    +0.042 A 
ATOM      2  C   LIG    1      -36.372  72.080  26.647  0.00  0.00    +0.042 A 
ATOM      3  C   LIG    1      -36.716  71.204  25.601  0.00  0.00    +0.086 A 
ATOM      4  C   LIG    1      -35.966  70.031  25.528  0.00  0.00    +0.138 A 
ATOM      5  N   LIG    1      -34.950  69.699  26.362  0.00  0.00    -0.260 NA
ATOM      6  C   LIG    1      -34.685  70.564  27.364  0.00  0.00    +0.122 A 
ENDROOT
BRANCH   1   7
ATOM      7  C   LIG    1      -34.928  72.740  28.610  0.00  0.00    +0.197 C 
ATOM      8  O   LIG    1      -34.700  72.275  29.739  0.00  0.00    -0.287 OA
BRANCH   7  17
ATOM      9  N   LIG    1      -33.910  76.224  27.946  0.00  0.00    -0.336 N 
ATOM     10  C   LIG    1      -35.276  76.432  28.087  0.00  0.00    +0.089 A 
ATOM     11  C   LIG    1      -36.094  77.561  27.980  0.00  0.00    +0.165 A 
ATOM     12  F   LIG    1      -35.643  78.759  27.600  0.00  0.00    -0.202 F 
ATOM     13  C   LIG    1      -37.444  77.391  28.246  0.00  0.00    +0.151 A 
ATOM     14  N   LIG    1      -38.016  76.223  28.603  0.00  0.00    -0.260 NA
ATOM     15  C   LIG    1      -37.233  75.118  28.683  0.00  0.00    +0.121 A 
ATOM     16  C   LIG    1      -35.852  75.183  28.408  0.00  0.00    +0.032 A 
ATOM     17  C   LIG    1      -34.824  74.185  28.340  0.00  0.00    +0.049 A 
ATOM     18  C   LIG    1      -33.715  74.863  27.857  0.00  0.00    +0.099 A 
BRANCH   9  20
ATOM     19  C   LIG    1      -31.548  76.636  28.629  0.00  0.00    +0.036 C 
ATOM     20  C   LIG    1      -32.798  77.217  27.933  0.00  0.00    +0.063 C 
ATOM     21  C   LIG    1      -33.223  78.534  28.610  0.00  0.00    +0.036 C 
BRANCH  20  22
ATOM     22  C   LIG    1      -32.352  77.610  26.475  0.00  0.00    +0.183 C 
BRANCH  22  23
ATOM     23  O   LIG    1      -32.636  78.976  26.169  0.00  0.00    -0.393 OA
ATOM     24  H   LIG    1      -33.601  79.060  26.062  0.00  0.00    +0.209 HD
ENDBRANCH  22  23
ENDBRANCH  20  22
ENDBRANCH   9  20
ENDBRANCH   7  17
ENDBRANCH   1   7
BRANCH   3  25
ATOM     25  N   LIG    1      -37.805  71.581  24.797  0.00  0.00    -0.216 NA
ATOM     26  C   LIG    1      -39.069  71.559  25.051  0.00  0.00    +0.192 C 
BRANCH  26  27
ATOM     27  O   LIG    1      -39.669  71.074  26.158  0.00  0.00    -0.495 OA
ATOM     28  H   LIG    1      -39.050  70.936  26.883  0.00  0.00    +0.293 HD
ENDBRANCH  26  27
BRANCH  26  29
ATOM     29  C   LIG    1      -40.094  72.014  24.031  0.00  0.00    +0.130 C 
BRANCH  29  30
ATOM     30  C   LIG    1      -40.272  73.521  23.988  0.00  0.00    -0.038 A 
ATOM     31  C   LIG    1      -39.224  74.400  24.307  0.00  0.00    +0.016 A 
ATOM     32  C   LIG    1      -39.376  75.793  24.222  0.00  0.00    +0.055 A 
ATOM     33  C   LIG    1      -40.604  76.311  23.800  0.00  0.00    +0.012 A 
ATOM     34  C   LIG    1      -41.653  75.453  23.467  0.00  0.00    +0.001 A 
ATOM     35  C   LIG    1      -41.487  74.068  23.554  0.00  0.00    +0.004 A 
BRANCH  32  36
ATOM     36  C   LIG    1      -38.216  76.689  24.575  0.00  0.00    +0.417 C 
ATOM     37  F   LIG    1      -37.597  77.195  23.472  0.00  0.00    -0.166 F 
ATOM     38  F   LIG    1      -37.244  76.033  25.272  0.00  0.00    -0.166 F 
ATOM     39  F   LIG    1      -38.562  77.763  25.335  0.00  0.00    -0.166 F 
ENDBRANCH  32  36
ENDBRANCH  29  30
ENDBRANCH  26  29
ENDBRANCH   3  25
TORSDOF 10
ENDMDL
MODEL 7
REMARK VINA RESULT:      -6.0      6.842      9.103
REMARK  Name = pdb/CHEMBL3957376.pdb
REMARK                            x       y       z     vdW  Elec       q    Type
REMARK                         _______ _______ _______ _____ _____    ______ ____
ROOT
ATOM      1  C   LIG    1      -40.428  81.638  23.142  0.00  0.00    +0.042 A 
ATOM      2  C   LIG    1      -39.655  80.479  23.316  0.00  0.00    +0.042 A 
ATOM      3  C   LIG    1      -40.140  79.373  24.039  0.00  0.00    +0.086 A 
ATOM      4  C   LIG    1      -41.437  79.501  24.533  0.00  0.00    +0.138 A 
ATOM      5  N   LIG    1      -42.228  80.591  24.381  0.00  0.00    -0.260 NA
ATOM      6  C   LIG    1      -41.720  81.609  23.654  0.00  0.00    +0.122 A 
ENDROOT
BRANCH   1   7
ATOM      7  C   LIG    1      -39.895  82.825  22.415  0.00  0.00    +0.197 C 
ATOM      8  O   LIG    1      -40.178  82.944  21.211  0.00  0.00    -0.287 OA
BRANCH   7  17
ATOM      9  N   LIG    1      -37.580  84.709  24.584  0.00  0.00    -0.336 N 
ATOM     10  C   LIG    1      -38.100  85.775  23.863  0.00  0.00    +0.089 A 
ATOM     11  C   LIG    1      -37.848  87.151  23.861  0.00  0.00    +0.165 A 
ATOM     12  F   LIG    1      -36.888  87.720  24.594  0.00  0.00    -0.202 F 
ATOM     13  C   LIG    1      -38.620  87.934  23.017  0.00  0.00    +0.151 A 
ATOM     14  N   LIG    1      -39.591  87.465  22.208  0.00  0.00    -0.260 NA
ATOM     15  C   LIG    1      -39.823  86.128  22.184  0.00  0.00    +0.121 A 
ATOM     16  C   LIG    1      -39.075  85.246  22.989  0.00  0.00    +0.032 A 
ATOM     17  C   LIG    1      -39.052  83.816  23.106  0.00  0.00    +0.049 A 
ATOM     18  C   LIG    1      -37.980  83.555  23.944  0.00  0.00    +0.099 A 
BRANCH   9  20
ATOM     19  C   LIG    1      -37.436  85.634  26.894  0.00  0.00    +0.036 C 
ATOM     20  C   LIG    1      -36.777  84.718  25.840  0.00  0.00    +0.063 C 
ATOM     21  C   LIG    1      -35.330  85.170  25.569  0.00  0.00    +0.036 C 
BRANCH  20  22
ATOM     22  C   LIG    1      -36.665  83.292  26.499  0.00  0.00    +0.183 C 
BRANCH  22  23
ATOM     23  O   LIG    1      -35.359  82.731  26.360  0.00  0.00    -0.393 OA
ATOM     24  H   LIG    1      -34.734  83.317  26.824  0.00  0.00    +0.209 HD
ENDBRANCH  22  23
ENDBRANCH  20  22
ENDBRANCH   9  20
ENDBRANCH   7  17
ENDBRANCH   1   7
BRANCH   3  25
ATOM     25  N   LIG    1      -39.291  78.257  24.125  0.00  0.00    -0.216 NA
ATOM     26  C   LIG    1      -38.959  77.545  25.148  0.00  0.00    +0.192 C 
BRANCH  26  27
ATOM     27  O   LIG    1      -39.297  77.764  26.436  0.00  0.00    -0.495 OA
ATOM     28  H   LIG    1      -38.533  77.763  27.024  0.00  0.00    +0.293 HD
ENDBRANCH  26  27
BRANCH  26  29
ATOM     29  C   LIG    1      -38.013  76.368  25.025  0.00  0.00    +0.130 C 
BRANCH  29  30
ATOM     30  C   LIG    1      -38.711  75.071  24.657  0.00  0.00    -0.038 A 
ATOM     31  C   LIG    1      -38.103  73.820  24.855  0.00  0.00    +0.016 A 
ATOM     32  C   LIG    1      -38.767  72.619  24.558  0.00  0.00    +0.055 A 
ATOM     33  C   LIG    1      -40.072  72.678  24.057  0.00  0.00    +0.012 A 
ATOM     34  C   LIG    1      -40.696  73.912  23.865  0.00  0.00    +0.001 A 
ATOM     35  C   LIG    1      -40.024  75.099  24.167  0.00  0.00    +0.004 A 
BRANCH  32  36
ATOM     36  C   LIG    1      -38.066  71.306  24.794  0.00  0.00    +0.417 C 
ATOM     37  F   LIG    1      -38.008  70.979  26.115  0.00  0.00    -0.166 F 
ATOM     38  F   LIG    1      -36.773  71.319  24.362  0.00  0.00    -0.166 F 
ATOM     39  F   LIG    1      -38.657  70.248  24.174  0.00  0.00    -0.166 F 
ENDBRANCH  32  36
ENDBRANCH  29  30
ENDBRANCH  26  29
ENDBRANCH   3  25
TORSDOF 10
ENDMDL
MODEL 8
REMARK VINA RESULT:      -6.0     13.001     16.853
REMARK  Name = pdb/CHEMBL3957376.pdb
REMARK                            x       y       z     vdW  Elec       q    Type
REMARK                         _______ _______ _______ _____ _____    ______ ____
ROOT
ATOM      1  C   LIG    1      -26.041  78.930  35.747  0.00  0.00    +0.042 A 
ATOM      2  C   LIG    1      -24.779  79.490  36.008  0.00  0.00    +0.042 A 
ATOM      3  C   LIG    1      -24.601  80.467  37.005  0.00  0.00    +0.086 A 
ATOM      4  C   LIG    1      -25.746  80.808  37.724  0.00  0.00    +0.138 A 
ATOM      5  N   LIG    1      -26.981  80.289  37.520  0.00  0.00    -0.260 NA
ATOM      6  C   LIG    1      -27.085  79.335  36.571  0.00  0.00    +0.122 A 
ENDROOT
BRANCH   1   7
ATOM      7  C   LIG    1      -26.235  77.928  34.661  0.00  0.00    +0.197 C 
ATOM      8  O   LIG    1      -27.400  77.628  34.350  0.00  0.00    -0.287 OA
BRANCH   7  17
ATOM      9  N   LIG    1      -23.613  76.742  32.353  0.00  0.00    -0.336 N 
ATOM     10  C   LIG    1      -23.253  76.002  33.471  0.00  0.00    +0.089 A 
ATOM     11  C   LIG    1      -22.214  75.105  33.739  0.00  0.00    +0.165 A 
ATOM     12  F   LIG    1      -21.231  74.844  32.873  0.00  0.00    -0.202 F 
ATOM     13  C   LIG    1      -22.205  74.502  34.986  0.00  0.00    +0.151 A 
ATOM     14  N   LIG    1      -23.123  74.716  35.950  0.00  0.00    -0.260 NA
ATOM     15  C   LIG    1      -24.119  75.605  35.708  0.00  0.00    +0.121 A 
ATOM     16  C   LIG    1      -24.202  76.287  34.477  0.00  0.00    +0.032 A 
ATOM     17  C   LIG    1      -25.079  77.312  33.988  0.00  0.00    +0.049 A 
ATOM     18  C   LIG    1      -24.534  77.680  32.768  0.00  0.00    +0.099 A 
BRANCH   9  20
ATOM     19  C   LIG    1      -23.274  75.113  30.497  0.00  0.00    +0.036 C 
ATOM     20  C   LIG    1      -23.174  76.591  30.936  0.00  0.00    +0.063 C 
ATOM     21  C   LIG    1      -21.737  77.110  30.742  0.00  0.00    +0.036 C 
BRANCH  20  22
ATOM     22  C   LIG    1      -24.066  77.413  29.933  0.00  0.00    +0.183 C 
BRANCH  22  23
ATOM     23  O   LIG    1      -23.286  78.152  28.992  0.00  0.00    -0.393 OA
ATOM     24  H   LIG    1      -23.796  78.943  28.741  0.00  0.00    +0.209 HD
ENDBRANCH  22  23
ENDBRANCH  20  22
ENDBRANCH   9  20
ENDBRANCH   7  17
ENDBRANCH   1   7
BRANCH   3  25
ATOM     25  N   LIG    1      -23.290  80.936  37.199  0.00  0.00    -0.216 NA
ATOM     26  C   LIG    1      -22.709  81.988  36.733  0.00  0.00    +0.192 C 
BRANCH  26  27
ATOM     27  O   LIG    1      -23.217  82.876  35.852  0.00  0.00    -0.495 OA
ATOM     28  H   LIG    1      -24.068  82.598  35.496  0.00  0.00    +0.293 HD
ENDBRANCH  26  27
BRANCH  26  29
ATOM     29  C   LIG    1      -21.267  82.315  37.064  0.00  0.00    +0.130 C 
BRANCH  29  30
ATOM     30  C   LIG    1      -20.311  81.170  36.782  0.00  0.00    -0.038 A 
ATOM     31  C   LIG    1      -20.329  80.473  35.562  0.00  0.00    +0.016 A 
ATOM     32  C   LIG    1      -19.414  79.446  35.283  0.00  0.00    +0.055 A 
ATOM     33  C   LIG    1      -18.457  79.118  36.247  0.00  0.00    +0.012 A 
ATOM     34  C   LIG    1      -18.415  79.808  37.460  0.00  0.00    +0.001 A 
ATOM     35  C   LIG    1      -19.331  80.830  37.724  0.00  0.00    +0.004 A 
BRANCH  32  36
ATOM     36  C   LIG    1      -19.480  78.734  33.956  0.00  0.00    +0.417 C 
ATOM     37  F   LIG    1      -19.317  79.584  32.903  0.00  0.00    -0.166 F 
ATOM     38  F   LIG    1      -20.682  78.122  33.751  0.00  0.00    -0.166 F 
ATOM     39  F   LIG    1      -18.536  77.766  33.803  0.00  0.00    -0.166 F 
ENDBRANCH  32  36
ENDBRANCH  29  30
ENDBRANCH  26  29
ENDBRANCH   3  25
TORSDOF 10
ENDMDL
MODEL 9
REMARK VINA RESULT:      -6.0      7.548     11.727
REMARK  Name = pdb/CHEMBL3957376.pdb
REMARK                            x       y       z     vdW  Elec       q    Type
REMARK                         _______ _______ _______ _____ _____    ______ ____
ROOT
ATOM      1  C   LIG    1      -36.106  67.640  21.932  0.00  0.00    +0.042 A 
ATOM      2  C   LIG    1      -36.653  68.517  22.882  0.00  0.00    +0.042 A 
ATOM      3  C   LIG    1      -37.788  69.299  22.594  0.00  0.00    +0.086 A 
ATOM      4  C   LIG    1      -38.336  69.115  21.326  0.00  0.00    +0.138 A 
ATOM      5  N   LIG    1      -37.855  68.273  20.379  0.00  0.00    -0.260 NA
ATOM      6  C   LIG    1      -36.783  67.528  20.723  0.00  0.00    +0.122 A 
ENDROOT
BRANCH   1   7
ATOM      7  C   LIG    1      -34.878  66.847  22.224  0.00  0.00    +0.197 C 
ATOM      8  O   LIG    1      -34.507  66.766  23.407  0.00  0.00    -0.287 OA
BRANCH   7  17
ATOM      9  N   LIG    1      -32.720  65.905  19.383  0.00  0.00    -0.336 N 
ATOM     10  C   LIG    1      -33.378  64.694  19.553  0.00  0.00    +0.089 A 
ATOM     11  C   LIG    1      -33.281  63.449  18.923  0.00  0.00    +0.165 A 
ATOM     12  F   LIG    1      -32.366  63.170  17.989  0.00  0.00    -0.202 F 
ATOM     13  C   LIG    1      -34.160  62.461  19.336  0.00  0.00    +0.151 A 
ATOM     14  N   LIG    1      -35.098  62.618  20.292  0.00  0.00    -0.260 NA
ATOM     15  C   LIG    1      -35.181  63.814  20.926  0.00  0.00    +0.121 A 
ATOM     16  C   LIG    1      -34.315  64.875  20.593  0.00  0.00    +0.032 A 
ATOM     17  C   LIG    1      -34.130  66.189  21.138  0.00  0.00    +0.049 A 
ATOM     18  C   LIG    1      -33.009  66.679  20.486  0.00  0.00    +0.099 A 
BRANCH   9  20
ATOM     19  C   LIG    1      -31.529  67.869  18.417  0.00  0.00    +0.036 C 
ATOM     20  C   LIG    1      -31.885  66.377  18.242  0.00  0.00    +0.063 C 
ATOM     21  C   LIG    1      -32.603  66.152  16.899  0.00  0.00    +0.036 C 
BRANCH  20  22
ATOM     22  C   LIG    1      -30.517  65.605  18.131  0.00  0.00    +0.183 C 
BRANCH  22  23
ATOM     23  O   LIG    1      -29.406  66.408  18.531  0.00  0.00    -0.393 OA
ATOM     24  H   LIG    1      -29.032  66.817  17.730  0.00  0.00    +0.209 HD
ENDBRANCH  22  23
ENDBRANCH  20  22
ENDBRANCH   9  20
ENDBRANCH   7  17
ENDBRANCH   1   7
BRANCH   3  25
ATOM     25  N   LIG    1      -38.265  70.119  23.629  0.00  0.00    -0.216 NA
ATOM     26  C   LIG    1      -37.682  71.079  24.262  0.00  0.00    +0.192 C 
BRANCH  26  27
ATOM     27  O   LIG    1      -36.401  71.482  24.129  0.00  0.00    -0.495 OA
ATOM     28  H   LIG    1      -35.870  71.294  24.911  0.00  0.00    +0.293 HD
ENDBRANCH  26  27
BRANCH  26  29
ATOM     29  C   LIG    1      -38.381  71.847  25.365  0.00  0.00    +0.130 C 
BRANCH  29  30
ATOM     30  C   LIG    1      -39.057  73.117  24.879  0.00  0.00    -0.038 A 
ATOM     31  C   LIG    1      -38.423  74.369  24.953  0.00  0.00    +0.016 A 
ATOM     32  C   LIG    1      -39.029  75.535  24.461  0.00  0.00    +0.055 A 
ATOM     33  C   LIG    1      -40.295  75.440  23.875  0.00  0.00    +0.012 A 
ATOM     34  C   LIG    1      -40.935  74.203  23.782  0.00  0.00    +0.001 A 
ATOM     35  C   LIG    1      -40.319  73.049  24.274  0.00  0.00    +0.004 A 
BRANCH  32  36
ATOM     36  C   LIG    1      -38.300  76.851  24.565  0.00  0.00    +0.417 C 
ATOM     37  F   LIG    1      -39.142  77.918  24.481  0.00  0.00    -0.166 F 
ATOM     38  F   LIG    1      -37.388  77.023  23.566  0.00  0.00    -0.166 F 
ATOM     39  F   LIG    1      -37.613  77.008  25.730  0.00  0.00    -0.166 F 
ENDBRANCH  32  36
ENDBRANCH  29  30
ENDBRANCH  26  29
ENDBRANCH   3  25
TORSDOF 10
ENDMDL
