MODEL 1
REMARK VINA RESULT:      -7.1      0.000      0.000
REMARK  Name = pdb/CHEMBL3952568.pdb
REMARK                            x       y       z     vdW  Elec       q    Type
REMARK                         _______ _______ _______ _____ _____    ______ ____
ROOT
ATOM      1  C   LIG    1      -25.926  81.535  36.986  0.00  0.00    +0.323 A 
ATOM      2  N   LIG    1      -25.391  82.723  36.701  0.00  0.00    -0.201 NA
ATOM      3  C   LIG    1      -26.276  83.750  36.626  0.00  0.00    +0.145 A 
ATOM      4  C   LIG    1      -27.659  83.653  36.745  0.00  0.00    +0.105 A 
ATOM      5  C   LIG    1      -28.070  82.381  37.060  0.00  0.00    +0.145 A 
ATOM      6  N   LIG    1      -27.239  81.340  37.224  0.00  0.00    -0.201 NA
ENDROOT
BRANCH   4   7
ATOM      7  N   LIG    1      -28.602  84.686  36.688  0.00  0.00    -0.196 NA
ATOM      8  C   LIG    1      -29.124  85.102  35.555  0.00  0.00    +0.285 C 
BRANCH   8   9
ATOM      9  N   LIG    1      -29.972  86.132  35.339  0.00  0.00    -0.269 N 
ATOM     10  H   LIG    1      -30.950  85.975  35.524  0.00  0.00    +0.157 HD
BRANCH   9  11
ATOM     11  C   LIG    1      -29.757  87.351  34.652  0.00  0.00    +0.045 A 
ATOM     12  C   LIG    1      -30.398  87.639  33.410  0.00  0.00    +0.021 A 
ATOM     13  C   LIG    1      -30.153  88.901  32.828  0.00  0.00    +0.012 A 
ATOM     14  C   LIG    1      -29.261  89.824  33.387  0.00  0.00    +0.013 A 
ATOM     15  C   LIG    1      -28.610  89.534  34.584  0.00  0.00    +0.057 A 
ATOM     16  C   LIG    1      -28.892  88.315  35.207  0.00  0.00    +0.036 A 
BRANCH  12  17
ATOM     17  C   LIG    1      -31.324  86.706  32.710  0.00  0.00    +0.070 A 
ATOM     18  N   LIG    1      -32.648  86.445  33.060  0.00  0.00    -0.267 N 
ATOM     19  C   LIG    1      -33.531  87.202  33.920  0.00  0.00    +0.173 C 
ATOM     20  N   LIG    1      -33.219  85.464  32.331  0.00  0.00    -0.179 NA
ATOM     21  C   LIG    1      -32.308  85.174  31.409  0.00  0.00    +0.135 A 
ATOM     22  C   LIG    1      -31.123  85.903  31.593  0.00  0.00    +0.049 A 
ENDBRANCH  12  17
BRANCH  15  23
ATOM     23  C   LIG    1      -27.606  90.489  35.186  0.00  0.00    +0.417 C 
ATOM     24  F   LIG    1      -28.064  91.094  36.315  0.00  0.00    -0.166 F 
ATOM     25  F   LIG    1      -27.278  91.495  34.327  0.00  0.00    -0.166 F 
ATOM     26  F   LIG    1      -26.427  89.900  35.530  0.00  0.00    -0.166 F 
ENDBRANCH  15  23
ENDBRANCH   9  11
ENDBRANCH   8   9
BRANCH   8  27
ATOM     27  O   LIG    1      -28.809  84.473  34.418  0.00  0.00    -0.481 OA
ATOM     28  H   LIG    1      -29.557  84.465  33.805  0.00  0.00    +0.295 HD
ENDBRANCH   8  27
ENDBRANCH   4   7
BRANCH   1  29
ATOM     29  O   LIG    1      -25.035  80.463  37.009  0.00  0.00    -0.424 OA
BRANCH  29  33
ATOM     30  C   LIG    1      -24.441  78.423  33.408  0.00  0.00    -0.013 A 
ATOM     31  C   LIG    1      -25.460  78.055  34.298  0.00  0.00    +0.012 A 
ATOM     32  C   LIG    1      -25.640  78.746  35.502  0.00  0.00    +0.047 A 
ATOM     33  C   LIG    1      -24.777  79.788  35.839  0.00  0.00    +0.132 A 
ATOM     34  C   LIG    1      -23.699  80.071  35.000  0.00  0.00    +0.047 A 
ATOM     35  C   LIG    1      -23.575  79.456  33.766  0.00  0.00    +0.012 A 
BRANCH  30  39
ATOM     36  C   LIG    1      -20.685  77.507  31.158  0.00  0.00    +0.125 A 
ATOM     37  N   LIG    1      -21.687  77.816  31.958  0.00  0.00    -0.213 NA
ATOM     38  C   LIG    1      -22.970  77.506  31.573  0.00  0.00    +0.165 A 
ATOM     39  C   LIG    1      -24.200  77.740  32.156  0.00  0.00    +0.046 A 
ATOM     40  C   LIG    1      -25.135  77.154  31.272  0.00  0.00    +0.145 A 
ATOM     41  N   LIG    1      -24.572  76.600  30.201  0.00  0.00    -0.173 NA
ATOM     42  N   LIG    1      -23.249  76.829  30.380  0.00  0.00    -0.221 N 
ATOM     43  C   LIG    1      -22.209  76.473  29.536  0.00  0.00    +0.118 A 
ATOM     44  C   LIG    1      -20.944  76.780  29.854  0.00  0.00    +0.063 A 
BRANCH  36  46
ATOM     45  C   LIG    1      -19.159  78.747  32.658  0.00  0.00    +0.130 C 
ATOM     46  N   LIG    1      -19.368  77.854  31.517  0.00  0.00    -0.321 N 
ATOM     47  C   LIG    1      -18.221  77.044  31.137  0.00  0.00    +0.130 C 
ENDBRANCH  36  46
ENDBRANCH  30  39
ENDBRANCH  29  33
ENDBRANCH   1  29
TORSDOF 10
ENDMDL
MODEL 2
REMARK VINA RESULT:      -7.0     17.946     20.761
REMARK  Name = pdb/CHEMBL3952568.pdb
REMARK                            x       y       z     vdW  Elec       q    Type
REMARK                         _______ _______ _______ _____ _____    ______ ____
ROOT
ATOM      1  C   LIG    1      -37.175  67.212  20.768  0.00  0.00    +0.323 A 
ATOM      2  N   LIG    1      -37.724  66.634  21.838  0.00  0.00    -0.201 NA
ATOM      3  C   LIG    1      -38.238  67.493  22.756  0.00  0.00    +0.145 A 
ATOM      4  C   LIG    1      -38.174  68.881  22.708  0.00  0.00    +0.105 A 
ATOM      5  C   LIG    1      -37.605  69.339  21.545  0.00  0.00    +0.145 A 
ATOM      6  N   LIG    1      -37.149  68.544  20.565  0.00  0.00    -0.201 NA
ENDROOT
BRANCH   4   7
ATOM      7  N   LIG    1      -38.700  69.799  23.624  0.00  0.00    -0.196 NA
ATOM      8  C   LIG    1      -39.908  70.305  23.500  0.00  0.00    +0.285 C 
BRANCH   8   9
ATOM      9  N   LIG    1      -40.512  71.252  24.252  0.00  0.00    -0.269 N 
ATOM     10  H   LIG    1      -41.245  70.953  24.876  0.00  0.00    +0.157 HD
BRANCH   9  11
ATOM     11  C   LIG    1      -40.460  72.662  24.140  0.00  0.00    +0.045 A 
ATOM     12  C   LIG    1      -41.474  73.402  23.459  0.00  0.00    +0.021 A 
ATOM     13  C   LIG    1      -41.355  74.808  23.443  0.00  0.00    +0.012 A 
ATOM     14  C   LIG    1      -40.256  75.473  23.999  0.00  0.00    +0.013 A 
ATOM     15  C   LIG    1      -39.249  74.753  24.637  0.00  0.00    +0.057 A 
ATOM     16  C   LIG    1      -39.385  73.365  24.720  0.00  0.00    +0.036 A 
BRANCH  12  17
ATOM     17  C   LIG    1      -42.655  72.784  22.794  0.00  0.00    +0.070 A 
ATOM     18  N   LIG    1      -43.826  72.364  23.422  0.00  0.00    -0.267 N 
ATOM     19  C   LIG    1      -44.327  72.697  24.738  0.00  0.00    +0.173 C 
ATOM     20  N   LIG    1      -44.684  71.727  22.600  0.00  0.00    -0.179 NA
ATOM     21  C   LIG    1      -44.133  71.849  21.398  0.00  0.00    +0.135 A 
ATOM     22  C   LIG    1      -42.885  72.488  21.455  0.00  0.00    +0.049 A 
ENDBRANCH  12  17
BRANCH  15  23
ATOM     23  C   LIG    1      -38.028  75.440  25.205  0.00  0.00    +0.417 C 
ATOM     24  F   LIG    1      -37.192  75.911  24.241  0.00  0.00    -0.166 F 
ATOM     25  F   LIG    1      -37.280  74.600  25.974  0.00  0.00    -0.166 F 
ATOM     26  F   LIG    1      -38.321  76.507  26.000  0.00  0.00    -0.166 F 
ENDBRANCH  15  23
ENDBRANCH   9  11
ENDBRANCH   8   9
BRANCH   8  27
ATOM     27  O   LIG    1      -40.699  69.877  22.511  0.00  0.00    -0.481 OA
ATOM     28  H   LIG    1      -40.781  68.914  22.522  0.00  0.00    +0.295 HD
ENDBRANCH   8  27
ENDBRANCH   4   7
BRANCH   1  29
ATOM     29  O   LIG    1      -36.594  66.342  19.846  0.00  0.00    -0.424 OA
BRANCH  29  33
ATOM     30  C   LIG    1      -32.479  66.543  19.131  0.00  0.00    -0.013 A 
ATOM     31  C   LIG    1      -32.989  66.364  20.425  0.00  0.00    +0.012 A 
ATOM     32  C   LIG    1      -34.371  66.305  20.646  0.00  0.00    +0.047 A 
ATOM     33  C   LIG    1      -35.251  66.462  19.575  0.00  0.00    +0.132 A 
ATOM     34  C   LIG    1      -34.734  66.752  18.312  0.00  0.00    +0.047 A 
ATOM     35  C   LIG    1      -33.372  66.715  18.073  0.00  0.00    +0.012 A 
BRANCH  30  39
ATOM     36  C   LIG    1      -29.818  69.976  18.058  0.00  0.00    +0.125 A 
ATOM     37  N   LIG    1      -30.722  69.085  18.421  0.00  0.00    -0.213 NA
ATOM     38  C   LIG    1      -30.352  67.767  18.538  0.00  0.00    +0.165 A 
ATOM     39  C   LIG    1      -31.064  66.623  18.843  0.00  0.00    +0.046 A 
ATOM     40  C   LIG    1      -30.103  65.585  18.824  0.00  0.00    +0.145 A 
ATOM     41  N   LIG    1      -28.878  66.006  18.520  0.00  0.00    -0.173 NA
ATOM     42  N   LIG    1      -29.035  67.339  18.331  0.00  0.00    -0.221 N 
ATOM     43  C   LIG    1      -28.065  68.261  17.974  0.00  0.00    +0.118 A 
ATOM     44  C   LIG    1      -28.383  69.553  17.818  0.00  0.00    +0.063 A 
BRANCH  36  46
ATOM     45  C   LIG    1      -31.611  71.667  17.858  0.00  0.00    +0.130 C 
ATOM     46  N   LIG    1      -30.188  71.324  17.894  0.00  0.00    -0.321 N 
ATOM     47  C   LIG    1      -29.288  72.421  18.213  0.00  0.00    +0.130 C 
ENDBRANCH  36  46
ENDBRANCH  30  39
ENDBRANCH  29  33
ENDBRANCH   1  29
TORSDOF 10
ENDMDL
MODEL 3
REMARK VINA RESULT:      -7.0      2.366      3.527
REMARK  Name = pdb/CHEMBL3952568.pdb
REMARK                            x       y       z     vdW  Elec       q    Type
REMARK                         _______ _______ _______ _____ _____    ______ ____
ROOT
ATOM      1  C   LIG    1      -25.994  81.384  37.023  0.00  0.00    +0.323 A 
ATOM      2  N   LIG    1      -25.390  82.553  36.804  0.00  0.00    -0.201 NA
ATOM      3  C   LIG    1      -26.220  83.626  36.739  0.00  0.00    +0.145 A 
ATOM      4  C   LIG    1      -27.609  83.596  36.805  0.00  0.00    +0.105 A 
ATOM      5  C   LIG    1      -28.094  82.336  37.054  0.00  0.00    +0.145 A 
ATOM      6  N   LIG    1      -27.323  81.248  37.206  0.00  0.00    -0.201 NA
ENDROOT
BRANCH   4   7
ATOM      7  N   LIG    1      -28.496  84.678  36.755  0.00  0.00    -0.196 NA
ATOM      8  C   LIG    1      -28.904  85.203  35.621  0.00  0.00    +0.285 C 
BRANCH   8   9
ATOM      9  N   LIG    1      -29.685  86.288  35.421  0.00  0.00    -0.269 N 
ATOM     10  H   LIG    1      -30.390  86.488  36.114  0.00  0.00    +0.157 HD
BRANCH   9  11
ATOM     11  C   LIG    1      -29.853  87.078  34.259  0.00  0.00    +0.045 A 
ATOM     12  C   LIG    1      -29.291  88.386  34.149  0.00  0.00    +0.021 A 
ATOM     13  C   LIG    1      -29.476  89.074  32.930  0.00  0.00    +0.012 A 
ATOM     14  C   LIG    1      -30.241  88.549  31.882  0.00  0.00    +0.013 A 
ATOM     15  C   LIG    1      -30.817  87.286  31.997  0.00  0.00    +0.057 A 
ATOM     16  C   LIG    1      -30.588  86.564  33.171  0.00  0.00    +0.036 A 
BRANCH  12  17
ATOM     17  C   LIG    1      -28.504  89.051  35.224  0.00  0.00    +0.070 A 
ATOM     18  N   LIG    1      -29.023  89.797  36.281  0.00  0.00    -0.267 N 
ATOM     19  C   LIG    1      -30.376  89.844  36.788  0.00  0.00    +0.173 C 
ATOM     20  N   LIG    1      -28.079  90.390  37.040  0.00  0.00    -0.179 NA
ATOM     21  C   LIG    1      -26.933  89.921  36.560  0.00  0.00    +0.135 A 
ATOM     22  C   LIG    1      -27.132  89.095  35.443  0.00  0.00    +0.049 A 
ENDBRANCH  12  17
BRANCH  15  23
ATOM     23  C   LIG    1      -31.686  86.715  30.902  0.00  0.00    +0.417 C 
ATOM     24  F   LIG    1      -32.952  86.443  31.320  0.00  0.00    -0.166 F 
ATOM     25  F   LIG    1      -31.191  85.542  30.415  0.00  0.00    -0.166 F 
ATOM     26  F   LIG    1      -31.818  87.536  29.822  0.00  0.00    -0.166 F 
ENDBRANCH  15  23
ENDBRANCH   9  11
ENDBRANCH   8   9
BRANCH   8  27
ATOM     27  O   LIG    1      -28.526  84.645  34.466  0.00  0.00    -0.481 OA
ATOM     28  H   LIG    1      -27.932  85.228  33.975  0.00  0.00    +0.295 HD
ENDBRANCH   8  27
ENDBRANCH   4   7
BRANCH   1  29
ATOM     29  O   LIG    1      -25.159  80.268  37.035  0.00  0.00    -0.424 OA
BRANCH  29  33
ATOM     30  C   LIG    1      -24.466  78.372  33.373  0.00  0.00    -0.013 A 
ATOM     31  C   LIG    1      -25.468  77.929  34.248  0.00  0.00    +0.012 A 
ATOM     32  C   LIG    1      -25.682  78.573  35.473  0.00  0.00    +0.047 A 
ATOM     33  C   LIG    1      -24.868  79.642  35.845  0.00  0.00    +0.132 A 
ATOM     34  C   LIG    1      -23.803  80.001  35.018  0.00  0.00    +0.047 A 
ATOM     35  C   LIG    1      -23.649  79.431  33.766  0.00  0.00    +0.012 A 
BRANCH  30  39
ATOM     36  C   LIG    1      -20.657  77.612  31.153  0.00  0.00    +0.125 A 
ATOM     37  N   LIG    1      -21.678  77.872  31.947  0.00  0.00    -0.213 NA
ATOM     38  C   LIG    1      -22.948  77.551  31.530  0.00  0.00    +0.165 A 
ATOM     39  C   LIG    1      -24.191  77.740  32.101  0.00  0.00    +0.046 A 
ATOM     40  C   LIG    1      -25.101  77.169  31.181  0.00  0.00    +0.145 A 
ATOM     41  N   LIG    1      -24.511  76.665  30.099  0.00  0.00    -0.173 NA
ATOM     42  N   LIG    1      -23.194  76.914  30.308  0.00  0.00    -0.221 N 
ATOM     43  C   LIG    1      -22.135  76.609  29.470  0.00  0.00    +0.118 A 
ATOM     44  C   LIG    1      -20.881  76.929  29.819  0.00  0.00    +0.063 A 
BRANCH  36  46
ATOM     45  C   LIG    1      -19.181  78.840  32.711  0.00  0.00    +0.130 C 
ATOM     46  N   LIG    1      -19.354  77.970  31.546  0.00  0.00    -0.321 N 
ATOM     47  C   LIG    1      -18.186  77.187  31.171  0.00  0.00    +0.130 C 
ENDBRANCH  36  46
ENDBRANCH  30  39
ENDBRANCH  29  33
ENDBRANCH   1  29
TORSDOF 10
ENDMDL
MODEL 4
REMARK VINA RESULT:      -7.0      6.384     13.416
REMARK  Name = pdb/CHEMBL3952568.pdb
REMARK                            x       y       z     vdW  Elec       q    Type
REMARK                         _______ _______ _______ _____ _____    ______ ____
ROOT
ATOM      1  C   LIG    1      -33.087  76.417  29.681  0.00  0.00    +0.323 A 
ATOM      2  N   LIG    1      -32.058  76.186  28.864  0.00  0.00    -0.201 NA
ATOM      3  C   LIG    1      -30.879  75.921  29.483  0.00  0.00    +0.145 A 
ATOM      4  C   LIG    1      -30.648  75.944  30.854  0.00  0.00    +0.105 A 
ATOM      5  C   LIG    1      -31.795  76.171  31.575  0.00  0.00    +0.145 A 
ATOM      6  N   LIG    1      -33.004  76.362  31.025  0.00  0.00    -0.201 NA
ENDROOT
BRANCH   4   7
ATOM      7  N   LIG    1      -29.455  75.664  31.530  0.00  0.00    -0.196 NA
ATOM      8  C   LIG    1      -28.527  76.575  31.730  0.00  0.00    +0.285 C 
BRANCH   8   9
ATOM      9  N   LIG    1      -27.304  76.433  32.287  0.00  0.00    -0.269 N 
ATOM     10  H   LIG    1      -27.120  76.935  33.141  0.00  0.00    +0.157 HD
BRANCH   9  11
ATOM     11  C   LIG    1      -26.123  75.877  31.740  0.00  0.00    +0.045 A 
ATOM     12  C   LIG    1      -25.866  74.473  31.769  0.00  0.00    +0.021 A 
ATOM     13  C   LIG    1      -24.681  74.014  31.156  0.00  0.00    +0.012 A 
ATOM     14  C   LIG    1      -23.738  74.888  30.600  0.00  0.00    +0.013 A 
ATOM     15  C   LIG    1      -23.970  76.261  30.597  0.00  0.00    +0.057 A 
ATOM     16  C   LIG    1      -25.170  76.727  31.141  0.00  0.00    +0.036 A 
BRANCH  12  17
ATOM     17  C   LIG    1      -26.781  73.469  32.379  0.00  0.00    +0.070 A 
ATOM     18  N   LIG    1      -26.909  73.191  33.739  0.00  0.00    -0.267 N 
ATOM     19  C   LIG    1      -26.478  73.975  34.876  0.00  0.00    +0.173 C 
ATOM     20  N   LIG    1      -27.721  72.148  34.006  0.00  0.00    -0.179 NA
ATOM     21  C   LIG    1      -28.235  71.826  32.824  0.00  0.00    +0.135 A 
ATOM     22  C   LIG    1      -27.693  72.602  31.788  0.00  0.00    +0.049 A 
ENDBRANCH  12  17
BRANCH  15  23
ATOM     23  C   LIG    1      -22.950  77.230  30.048  0.00  0.00    +0.417 C 
ATOM     24  F   LIG    1      -22.115  77.717  31.005  0.00  0.00    -0.166 F 
ATOM     25  F   LIG    1      -23.535  78.317  29.470  0.00  0.00    -0.166 F 
ATOM     26  F   LIG    1      -22.145  76.693  29.088  0.00  0.00    -0.166 F 
ENDBRANCH  15  23
ENDBRANCH   9  11
ENDBRANCH   8   9
BRANCH   8  27
ATOM     27  O   LIG    1      -28.754  77.836  31.346  0.00  0.00    -0.481 OA
ATOM     28  H   LIG    1      -29.468  78.234  31.861  0.00  0.00    +0.295 HD
ENDBRANCH   8  27
ENDBRANCH   4   7
BRANCH   1  29
ATOM     29  O   LIG    1      -34.289  76.746  29.057  0.00  0.00    -0.424 OA
BRANCH  29  33
ATOM     30  C   LIG    1      -35.263  80.763  28.426  0.00  0.00    -0.013 A 
ATOM     31  C   LIG    1      -34.082  80.207  27.913  0.00  0.00    +0.012 A 
ATOM     32  C   LIG    1      -33.770  78.860  28.139  0.00  0.00    +0.047 A 
ATOM     33  C   LIG    1      -34.622  78.073  28.913  0.00  0.00    +0.132 A 
ATOM     34  C   LIG    1      -35.734  78.666  29.512  0.00  0.00    +0.047 A 
ATOM     35  C   LIG    1      -36.096  79.968  29.212  0.00  0.00    +0.012 A 
BRANCH  30  39
ATOM     36  C   LIG    1      -33.835  84.548  30.335  0.00  0.00    +0.125 A 
ATOM     37  N   LIG    1      -34.114  83.356  29.845  0.00  0.00    -0.213 NA
ATOM     38  C   LIG    1      -35.093  83.240  28.886  0.00  0.00    +0.165 A 
ATOM     39  C   LIG    1      -35.632  82.148  28.234  0.00  0.00    +0.046 A 
ATOM     40  C   LIG    1      -36.590  82.696  27.349  0.00  0.00    +0.145 A 
ATOM     41  N   LIG    1      -36.681  84.021  27.424  0.00  0.00    -0.173 NA
ATOM     42  N   LIG    1      -35.774  84.351  28.376  0.00  0.00    -0.221 N 
ATOM     43  C   LIG    1      -35.480  85.615  28.859  0.00  0.00    +0.118 A 
ATOM     44  C   LIG    1      -34.554  85.776  29.815  0.00  0.00    +0.063 A 
BRANCH  36  46
ATOM     45  C   LIG    1      -31.502  85.065  30.972  0.00  0.00    +0.130 C 
ATOM     46  N   LIG    1      -32.864  84.681  31.346  0.00  0.00    -0.321 N 
ATOM     47  C   LIG    1      -33.219  84.912  32.738  0.00  0.00    +0.130 C 
ENDBRANCH  36  46
ENDBRANCH  30  39
ENDBRANCH  29  33
ENDBRANCH   1  29
TORSDOF 10
ENDMDL
MODEL 5
REMARK VINA RESULT:      -6.9      2.915      4.636
REMARK  Name = pdb/CHEMBL3952568.pdb
REMARK                            x       y       z     vdW  Elec       q    Type
REMARK                         _______ _______ _______ _____ _____    ______ ____
ROOT
ATOM      1  C   LIG    1      -26.015  82.954  37.279  0.00  0.00    +0.323 A 
ATOM      2  N   LIG    1      -27.153  82.337  37.599  0.00  0.00    -0.201 NA
ATOM      3  C   LIG    1      -28.285  82.955  37.171  0.00  0.00    +0.145 A 
ATOM      4  C   LIG    1      -28.352  84.178  36.512  0.00  0.00    +0.105 A 
ATOM      5  C   LIG    1      -27.110  84.689  36.227  0.00  0.00    +0.145 A 
ATOM      6  N   LIG    1      -25.955  84.089  36.554  0.00  0.00    -0.201 NA
ENDROOT
BRANCH   4   7
ATOM      7  N   LIG    1      -29.493  84.841  36.044  0.00  0.00    -0.196 NA
ATOM      8  C   LIG    1      -29.884  84.771  34.790  0.00  0.00    +0.285 C 
BRANCH   8   9
ATOM      9  N   LIG    1      -30.905  85.416  34.183  0.00  0.00    -0.269 N 
ATOM     10  H   LIG    1      -31.842  85.164  34.456  0.00  0.00    +0.157 HD
BRANCH   9  11
ATOM     11  C   LIG    1      -30.896  86.235  33.028  0.00  0.00    +0.045 A 
ATOM     12  C   LIG    1      -30.013  87.349  32.900  0.00  0.00    +0.021 A 
ATOM     13  C   LIG    1      -30.049  88.074  31.690  0.00  0.00    +0.012 A 
ATOM     14  C   LIG    1      -30.961  87.781  30.668  0.00  0.00    +0.013 A 
ATOM     15  C   LIG    1      -31.846  86.714  30.802  0.00  0.00    +0.057 A 
ATOM     16  C   LIG    1      -31.777  85.945  31.967  0.00  0.00    +0.036 A 
BRANCH  12  17
ATOM     17  C   LIG    1      -29.042  87.771  33.948  0.00  0.00    +0.070 A 
ATOM     18  N   LIG    1      -29.325  88.563  35.060  0.00  0.00    -0.267 N 
ATOM     19  C   LIG    1      -30.605  88.885  35.650  0.00  0.00    +0.173 C 
ATOM     20  N   LIG    1      -28.234  88.895  35.780  0.00  0.00    -0.179 NA
ATOM     21  C   LIG    1      -27.249  88.206  35.215  0.00  0.00    +0.135 A 
ATOM     22  C   LIG    1      -27.685  87.499  34.084  0.00  0.00    +0.049 A 
ENDBRANCH  12  17
BRANCH  15  23
ATOM     23  C   LIG    1      -32.872  86.404  29.737  0.00  0.00    +0.417 C 
ATOM     24  F   LIG    1      -32.577  85.280  29.031  0.00  0.00    -0.166 F 
ATOM     25  F   LIG    1      -32.978  87.408  28.821  0.00  0.00    -0.166 F 
ATOM     26  F   LIG    1      -34.130  86.218  30.227  0.00  0.00    -0.166 F 
ENDBRANCH  15  23
ENDBRANCH   9  11
ENDBRANCH   8   9
BRANCH   8  27
ATOM     27  O   LIG    1      -29.221  83.981  33.939  0.00  0.00    -0.481 OA
ATOM     28  H   LIG    1      -28.390  83.673  34.326  0.00  0.00    +0.295 HD
ENDBRANCH   8  27
ENDBRANCH   4   7
BRANCH   1  29
ATOM     29  O   LIG    1      -24.851  82.359  37.762  0.00  0.00    -0.424 OA
BRANCH  29  33
ATOM     30  C   LIG    1      -22.291  80.233  35.230  0.00  0.00    -0.013 A 
ATOM     31  C   LIG    1      -22.014  81.554  35.609  0.00  0.00    +0.012 A 
ATOM     32  C   LIG    1      -22.886  82.253  36.454  0.00  0.00    +0.047 A 
ATOM     33  C   LIG    1      -24.061  81.643  36.894  0.00  0.00    +0.132 A 
ATOM     34  C   LIG    1      -24.381  80.370  36.420  0.00  0.00    +0.047 A 
ATOM     35  C   LIG    1      -23.478  79.643  35.665  0.00  0.00    +0.012 A 
BRANCH  30  39
ATOM     36  C   LIG    1      -23.179  77.293  31.977  0.00  0.00    +0.125 A 
ATOM     37  N   LIG    1      -23.088  78.204  32.928  0.00  0.00    -0.213 NA
ATOM     38  C   LIG    1      -21.844  78.593  33.363  0.00  0.00    +0.165 A 
ATOM     39  C   LIG    1      -21.435  79.466  34.352  0.00  0.00    +0.046 A 
ATOM     40  C   LIG    1      -20.022  79.444  34.290  0.00  0.00    +0.145 A 
ATOM     41  N   LIG    1      -19.548  78.622  33.357  0.00  0.00    -0.173 NA
ATOM     42  N   LIG    1      -20.665  78.091  32.801  0.00  0.00    -0.221 N 
ATOM     43  C   LIG    1      -20.737  77.152  31.785  0.00  0.00    +0.118 A 
ATOM     44  C   LIG    1      -21.926  76.719  31.346  0.00  0.00    +0.063 A 
BRANCH  36  46
ATOM     45  C   LIG    1      -25.089  75.748  32.260  0.00  0.00    +0.130 C 
ATOM     46  N   LIG    1      -24.445  76.853  31.547  0.00  0.00    -0.321 N 
ATOM     47  C   LIG    1      -25.335  77.695  30.762  0.00  0.00    +0.130 C 
ENDBRANCH  36  46
ENDBRANCH  30  39
ENDBRANCH  29  33
ENDBRANCH   1  29
TORSDOF 10
ENDMDL
MODEL 6
REMARK VINA RESULT:      -6.8      7.915     12.478
REMARK  Name = pdb/CHEMBL3952568.pdb
REMARK                            x       y       z     vdW  Elec       q    Type
REMARK                         _______ _______ _______ _____ _____    ______ ____
ROOT
ATOM      1  C   LIG    1      -28.756  72.820  32.234  0.00  0.00    +0.323 A 
ATOM      2  N   LIG    1      -27.650  72.707  31.497  0.00  0.00    -0.201 NA
ATOM      3  C   LIG    1      -26.709  73.660  31.720  0.00  0.00    +0.145 A 
ATOM      4  C   LIG    1      -26.831  74.752  32.573  0.00  0.00    +0.105 A 
ATOM      5  C   LIG    1      -28.006  74.732  33.284  0.00  0.00    +0.145 A 
ATOM      6  N   LIG    1      -28.942  73.777  33.166  0.00  0.00    -0.201 NA
ENDROOT
BRANCH   4   7
ATOM      7  N   LIG    1      -25.883  75.746  32.840  0.00  0.00    -0.196 NA
ATOM      8  C   LIG    1      -25.893  76.912  32.231  0.00  0.00    +0.285 C 
BRANCH   8   9
ATOM      9  N   LIG    1      -25.003  77.925  32.325  0.00  0.00    -0.269 N 
ATOM     10  H   LIG    1      -25.353  78.863  32.210  0.00  0.00    +0.157 HD
BRANCH   9  11
ATOM     11  C   LIG    1      -23.588  77.887  32.319  0.00  0.00    +0.045 A 
ATOM     12  C   LIG    1      -22.814  78.467  33.368  0.00  0.00    +0.021 A 
ATOM     13  C   LIG    1      -21.410  78.336  33.292  0.00  0.00    +0.012 A 
ATOM     14  C   LIG    1      -20.773  77.732  32.201  0.00  0.00    +0.013 A 
ATOM     15  C   LIG    1      -21.524  77.193  31.160  0.00  0.00    +0.057 A 
ATOM     16  C   LIG    1      -22.917  77.255  31.252  0.00  0.00    +0.036 A 
BRANCH  12  17
ATOM     17  C   LIG    1      -23.395  79.173  34.544  0.00  0.00    +0.070 A 
ATOM     18  N   LIG    1      -24.157  78.593  35.557  0.00  0.00    -0.267 N 
ATOM     19  C   LIG    1      -24.298  77.197  35.909  0.00  0.00    +0.173 C 
ATOM     20  N   LIG    1      -24.661  79.485  36.435  0.00  0.00    -0.179 NA
ATOM     21  C   LIG    1      -24.115  80.640  36.073  0.00  0.00    +0.135 A 
ATOM     22  C   LIG    1      -23.329  80.511  34.917  0.00  0.00    +0.049 A 
ENDBRANCH  12  17
BRANCH  15  23
ATOM     23  C   LIG    1      -20.862  76.578  29.949  0.00  0.00    +0.417 C 
ATOM     24  F   LIG    1      -20.080  75.509  30.260  0.00  0.00    -0.166 F 
ATOM     25  F   LIG    1      -20.050  77.463  29.305  0.00  0.00    -0.166 F 
ATOM     26  F   LIG    1      -21.744  76.135  29.009  0.00  0.00    -0.166 F 
ENDBRANCH  15  23
ENDBRANCH   9  11
ENDBRANCH   8   9
BRANCH   8  27
ATOM     27  O   LIG    1      -26.884  77.199  31.381  0.00  0.00    -0.481 OA
ATOM     28  H   LIG    1      -27.189  78.109  31.497  0.00  0.00    +0.295 HD
ENDBRANCH   8  27
ENDBRANCH   4   7
BRANCH   1  29
ATOM     29  O   LIG    1      -29.753  71.881  31.973  0.00  0.00    -0.424 OA
BRANCH  29  33
ATOM     30  C   LIG    1      -33.166  72.941  29.803  0.00  0.00    -0.013 A 
ATOM     31  C   LIG    1      -31.959  72.628  29.162  0.00  0.00    +0.012 A 
ATOM     32  C   LIG    1      -30.824  72.281  29.906  0.00  0.00    +0.047 A 
ATOM     33  C   LIG    1      -30.883  72.281  31.299  0.00  0.00    +0.132 A 
ATOM     34  C   LIG    1      -32.055  72.703  31.927  0.00  0.00    +0.047 A 
ATOM     35  C   LIG    1      -33.204  72.954  31.197  0.00  0.00    +0.012 A 
BRANCH  30  39
ATOM     36  C   LIG    1      -34.282  76.631  27.534  0.00  0.00    +0.125 A 
ATOM     37  N   LIG    1      -33.787  75.604  28.197  0.00  0.00    -0.213 NA
ATOM     38  C   LIG    1      -34.578  74.499  28.406  0.00  0.00    +0.165 A 
ATOM     39  C   LIG    1      -34.366  73.318  29.089  0.00  0.00    +0.046 A 
ATOM     40  C   LIG    1      -35.561  72.581  28.914  0.00  0.00    +0.145 A 
ATOM     41  N   LIG    1      -36.476  73.225  28.195  0.00  0.00    -0.173 NA
ATOM     42  N   LIG    1      -35.879  74.405  27.897  0.00  0.00    -0.221 N 
ATOM     43  C   LIG    1      -36.410  75.461  27.176  0.00  0.00    +0.118 A 
ATOM     44  C   LIG    1      -35.688  76.572  26.972  0.00  0.00    +0.063 A 
BRANCH  36  46
ATOM     45  C   LIG    1      -33.588  78.867  28.331  0.00  0.00    +0.130 C 
ATOM     46  N   LIG    1      -33.501  77.787  27.346  0.00  0.00    -0.321 N 
ATOM     47  C   LIG    1      -32.305  77.790  26.518  0.00  0.00    +0.130 C 
ENDBRANCH  36  46
ENDBRANCH  30  39
ENDBRANCH  29  33
ENDBRANCH   1  29
TORSDOF 10
ENDMDL
MODEL 7
REMARK VINA RESULT:      -6.6      7.863     12.823
REMARK  Name = pdb/CHEMBL3952568.pdb
REMARK                            x       y       z     vdW  Elec       q    Type
REMARK                         _______ _______ _______ _____ _____    ______ ____
ROOT
ATOM      1  C   LIG    1      -28.689  75.735  32.308  0.00  0.00    +0.323 A 
ATOM      2  N   LIG    1      -28.662  76.348  33.492  0.00  0.00    -0.201 NA
ATOM      3  C   LIG    1      -27.548  77.088  33.733  0.00  0.00    +0.145 A 
ATOM      4  C   LIG    1      -26.438  77.195  32.902  0.00  0.00    +0.105 A 
ATOM      5  C   LIG    1      -26.610  76.535  31.710  0.00  0.00    +0.145 A 
ATOM      6  N   LIG    1      -27.717  75.851  31.381  0.00  0.00    -0.201 NA
ENDROOT
BRANCH   4   7
ATOM      7  N   LIG    1      -25.281  77.955  33.106  0.00  0.00    -0.196 NA
ATOM      8  C   LIG    1      -24.271  77.522  33.828  0.00  0.00    +0.285 C 
BRANCH   8   9
ATOM      9  N   LIG    1      -23.137  78.170  34.176  0.00  0.00    -0.269 N 
ATOM     10  H   LIG    1      -23.196  78.837  34.929  0.00  0.00    +0.157 HD
BRANCH   9  11
ATOM     11  C   LIG    1      -21.900  78.257  33.493  0.00  0.00    +0.045 A 
ATOM     12  C   LIG    1      -20.843  79.099  33.952  0.00  0.00    +0.021 A 
ATOM     13  C   LIG    1      -19.632  79.079  33.227  0.00  0.00    +0.012 A 
ATOM     14  C   LIG    1      -19.474  78.330  32.055  0.00  0.00    +0.013 A 
ATOM     15  C   LIG    1      -20.513  77.530  31.586  0.00  0.00    +0.057 A 
ATOM     16  C   LIG    1      -21.696  77.487  32.330  0.00  0.00    +0.036 A 
BRANCH  12  17
ATOM     17  C   LIG    1      -20.931  79.970  35.157  0.00  0.00    +0.070 A 
ATOM     18  N   LIG    1      -20.568  79.616  36.456  0.00  0.00    -0.267 N 
ATOM     19  C   LIG    1      -19.748  78.513  36.906  0.00  0.00    +0.173 C 
ATOM     20  N   LIG    1      -20.867  80.554  37.377  0.00  0.00    -0.179 NA
ATOM     21  C   LIG    1      -21.304  81.584  36.662  0.00  0.00    +0.135 A 
ATOM     22  C   LIG    1      -21.367  81.283  35.293  0.00  0.00    +0.049 A 
ENDBRANCH  12  17
BRANCH  15  23
ATOM     23  C   LIG    1      -20.387  76.748  30.300  0.00  0.00    +0.417 C 
ATOM     24  F   LIG    1      -20.538  75.409  30.479  0.00  0.00    -0.166 F 
ATOM     25  F   LIG    1      -19.167  76.915  29.717  0.00  0.00    -0.166 F 
ATOM     26  F   LIG    1      -21.300  77.103  29.352  0.00  0.00    -0.166 F 
ENDBRANCH  15  23
ENDBRANCH   9  11
ENDBRANCH   8   9
BRANCH   8  27
ATOM     27  O   LIG    1      -24.306  76.282  34.327  0.00  0.00    -0.481 OA
ATOM     28  H   LIG    1      -25.121  75.827  34.073  0.00  0.00    +0.295 HD
ENDBRANCH   8  27
ENDBRANCH   4   7
BRANCH   1  29
ATOM     29  O   LIG    1      -29.800  74.927  32.074  0.00  0.00    -0.424 OA
BRANCH  29  33
ATOM     30  C   LIG    1      -32.891  76.517  29.749  0.00  0.00    -0.013 A 
ATOM     31  C   LIG    1      -33.034  76.337  31.132  0.00  0.00    +0.012 A 
ATOM     32  C   LIG    1      -31.990  75.797  31.894  0.00  0.00    +0.047 A 
ATOM     33  C   LIG    1      -30.808  75.401  31.267  0.00  0.00    +0.132 A 
ATOM     34  C   LIG    1      -30.721  75.480  29.877  0.00  0.00    +0.047 A 
ATOM     35  C   LIG    1      -31.711  76.100  29.134  0.00  0.00    +0.012 A 
BRANCH  30  39
ATOM     36  C   LIG    1      -36.354  74.610  27.655  0.00  0.00    +0.125 A 
ATOM     37  N   LIG    1      -35.319  75.021  28.362  0.00  0.00    -0.213 NA
ATOM     38  C   LIG    1      -34.973  76.351  28.331  0.00  0.00    +0.165 A 
ATOM     39  C   LIG    1      -33.937  77.058  28.909  0.00  0.00    +0.046 A 
ATOM     40  C   LIG    1      -34.150  78.398  28.511  0.00  0.00    +0.145 A 
ATOM     41  N   LIG    1      -35.217  78.554  27.732  0.00  0.00    -0.173 NA
ATOM     42  N   LIG    1      -35.711  77.297  27.611  0.00  0.00    -0.221 N 
ATOM     43  C   LIG    1      -36.816  76.892  26.881  0.00  0.00    +0.118 A 
ATOM     44  C   LIG    1      -37.175  75.602  26.856  0.00  0.00    +0.063 A 
BRANCH  36  46
ATOM     45  C   LIG    1      -35.801  72.284  28.287  0.00  0.00    +0.130 C 
ATOM     46  N   LIG    1      -36.698  73.245  27.643  0.00  0.00    -0.321 N 
ATOM     47  C   LIG    1      -38.066  72.790  27.449  0.00  0.00    +0.130 C 
ENDBRANCH  36  46
ENDBRANCH  30  39
ENDBRANCH  29  33
ENDBRANCH   1  29
TORSDOF 10
ENDMDL
MODEL 8
REMARK VINA RESULT:      -6.6     20.003     24.538
REMARK  Name = pdb/CHEMBL3952568.pdb
REMARK                            x       y       z     vdW  Elec       q    Type
REMARK                         _______ _______ _______ _____ _____    ______ ____
ROOT
ATOM      1  C   LIG    1      -28.778  78.257  10.509  0.00  0.00    +0.323 A 
ATOM      2  N   LIG    1      -27.900  78.601   9.566  0.00  0.00    -0.201 NA
ATOM      3  C   LIG    1      -26.662  78.924  10.022  0.00  0.00    +0.145 A 
ATOM      4  C   LIG    1      -26.270  78.993  11.354  0.00  0.00    +0.105 A 
ATOM      5  C   LIG    1      -27.263  78.592  12.214  0.00  0.00    +0.145 A 
ATOM      6  N   LIG    1      -28.481  78.188  11.822  0.00  0.00    -0.201 NA
ENDROOT
BRANCH   4   7
ATOM      7  N   LIG    1      -25.005  79.307  11.864  0.00  0.00    -0.196 NA
ATOM      8  C   LIG    1      -24.644  80.540  12.145  0.00  0.00    +0.285 C 
BRANCH   8   9
ATOM      9  N   LIG    1      -23.442  80.999  12.559  0.00  0.00    -0.269 N 
ATOM     10  H   LIG    1      -22.633  80.742  12.015  0.00  0.00    +0.157 HD
BRANCH   9  11
ATOM     11  C   LIG    1      -23.078  81.592  13.792  0.00  0.00    +0.045 A 
ATOM     12  C   LIG    1      -22.895  80.817  14.976  0.00  0.00    +0.021 A 
ATOM     13  C   LIG    1      -22.486  81.497  16.144  0.00  0.00    +0.012 A 
ATOM     14  C   LIG    1      -22.334  82.889  16.185  0.00  0.00    +0.013 A 
ATOM     15  C   LIG    1      -22.542  83.652  15.039  0.00  0.00    +0.057 A 
ATOM     16  C   LIG    1      -22.882  82.987  13.858  0.00  0.00    +0.036 A 
BRANCH  12  17
ATOM     17  C   LIG    1      -23.079  79.341  15.047  0.00  0.00    +0.070 A 
ATOM     18  N   LIG    1      -24.256  78.674  15.384  0.00  0.00    -0.267 N 
ATOM     19  C   LIG    1      -25.612  79.177  15.420  0.00  0.00    +0.173 C 
ATOM     20  N   LIG    1      -24.111  77.338  15.490  0.00  0.00    -0.179 NA
ATOM     21  C   LIG    1      -22.865  77.113  15.090  0.00  0.00    +0.135 A 
ATOM     22  C   LIG    1      -22.182  78.306  14.806  0.00  0.00    +0.049 A 
ENDBRANCH  12  17
BRANCH  15  23
ATOM     23  C   LIG    1      -22.432  85.158  15.066  0.00  0.00    +0.417 C 
ATOM     24  F   LIG    1      -21.181  85.602  14.768  0.00  0.00    -0.166 F 
ATOM     25  F   LIG    1      -22.731  85.672  16.293  0.00  0.00    -0.166 F 
ATOM     26  F   LIG    1      -23.268  85.784  14.191  0.00  0.00    -0.166 F 
ENDBRANCH  15  23
ENDBRANCH   9  11
ENDBRANCH   8   9
BRANCH   8  27
ATOM     27  O   LIG    1      -25.534  81.529  12.016  0.00  0.00    -0.481 OA
ATOM     28  H   LIG    1      -25.432  81.983  11.169  0.00  0.00    +0.295 HD
ENDBRANCH   8  27
ENDBRANCH   4   7
BRANCH   1  29
ATOM     29  O   LIG    1      -30.068  77.979  10.058  0.00  0.00    -0.424 OA
BRANCH  29  33
ATOM     30  C   LIG    1      -32.973  80.961  10.454  0.00  0.00    -0.013 A 
ATOM     31  C   LIG    1      -33.115  79.713  11.077  0.00  0.00    +0.012 A 
ATOM     32  C   LIG    1      -32.135  78.724  10.929  0.00  0.00    +0.047 A 
ATOM     33  C   LIG    1      -31.022  78.968  10.124  0.00  0.00    +0.132 A 
ATOM     34  C   LIG    1      -30.947  80.170   9.419  0.00  0.00    +0.047 A 
ATOM     35  C   LIG    1      -31.864  81.183   9.639  0.00  0.00    +0.012 A 
BRANCH  30  39
ATOM     36  C   LIG    1      -36.926  81.600   8.459  0.00  0.00    +0.125 A 
ATOM     37  N   LIG    1      -35.770  81.246   8.987  0.00  0.00    -0.213 NA
ATOM     38  C   LIG    1      -35.163  82.084   9.892  0.00  0.00    +0.165 A 
ATOM     39  C   LIG    1      -33.957  82.015  10.561  0.00  0.00    +0.046 A 
ATOM     40  C   LIG    1      -33.925  83.178  11.366  0.00  0.00    +0.145 A 
ATOM     41  N   LIG    1      -35.003  83.946  11.226  0.00  0.00    -0.173 NA
ATOM     42  N   LIG    1      -35.753  83.282  10.312  0.00  0.00    -0.221 N 
ATOM     43  C   LIG    1      -36.978  83.661   9.790  0.00  0.00    +0.118 A 
ATOM     44  C   LIG    1      -37.595  82.893   8.883  0.00  0.00    +0.063 A 
BRANCH  36  46
ATOM     45  C   LIG    1      -36.945  79.472   7.201  0.00  0.00    +0.130 C 
ATOM     46  N   LIG    1      -37.542  80.774   7.500  0.00  0.00    -0.321 N 
ATOM     47  C   LIG    1      -38.943  80.919   7.136  0.00  0.00    +0.130 C 
ENDBRANCH  36  46
ENDBRANCH  30  39
ENDBRANCH  29  33
ENDBRANCH   1  29
TORSDOF 10
ENDMDL
MODEL 9
REMARK VINA RESULT:      -6.5      1.559      1.965
REMARK  Name = pdb/CHEMBL3952568.pdb
REMARK                            x       y       z     vdW  Elec       q    Type
REMARK                         _______ _______ _______ _____ _____    ______ ____
ROOT
ATOM      1  C   LIG    1      -25.556  81.316  37.435  0.00  0.00    +0.323 A 
ATOM      2  N   LIG    1      -24.903  82.373  37.921  0.00  0.00    -0.201 NA
ATOM      3  C   LIG    1      -25.632  83.516  37.997  0.00  0.00    +0.145 A 
ATOM      4  C   LIG    1      -26.939  83.687  37.554  0.00  0.00    +0.105 A 
ATOM      5  C   LIG    1      -27.496  82.517  37.099  0.00  0.00    +0.145 A 
ATOM      6  N   LIG    1      -26.854  81.339  37.071  0.00  0.00    -0.201 NA
ENDROOT
BRANCH   4   7
ATOM      7  N   LIG    1      -27.728  84.841  37.625  0.00  0.00    -0.196 NA
ATOM      8  C   LIG    1      -27.641  85.811  36.741  0.00  0.00    +0.285 C 
BRANCH   8   9
ATOM      9  N   LIG    1      -28.271  87.006  36.729  0.00  0.00    -0.269 N 
ATOM     10  H   LIG    1      -28.404  87.471  37.613  0.00  0.00    +0.157 HD
BRANCH   9  11
ATOM     11  C   LIG    1      -29.012  87.625  35.693  0.00  0.00    +0.045 A 
ATOM     12  C   LIG    1      -30.011  86.922  34.956  0.00  0.00    +0.021 A 
ATOM     13  C   LIG    1      -30.726  87.641  33.975  0.00  0.00    +0.012 A 
ATOM     14  C   LIG    1      -30.434  88.975  33.664  0.00  0.00    +0.013 A 
ATOM     15  C   LIG    1      -29.439  89.657  34.359  0.00  0.00    +0.057 A 
ATOM     16  C   LIG    1      -28.767  88.978  35.379  0.00  0.00    +0.036 A 
BRANCH  12  17
ATOM     17  C   LIG    1      -30.361  85.491  35.178  0.00  0.00    +0.070 A 
ATOM     18  N   LIG    1      -31.087  84.979  36.252  0.00  0.00    -0.267 N 
ATOM     19  C   LIG    1      -31.933  85.674  37.197  0.00  0.00    +0.173 C 
ATOM     20  N   LIG    1      -31.153  83.632  36.269  0.00  0.00    -0.179 NA
ATOM     21  C   LIG    1      -30.582  83.264  35.128  0.00  0.00    +0.135 A 
ATOM     22  C   LIG    1      -30.076  84.363  34.417  0.00  0.00    +0.049 A 
ENDBRANCH  12  17
BRANCH  15  23
ATOM     23  C   LIG    1      -29.070  91.080  34.013  0.00  0.00    +0.417 C 
ATOM     24  F   LIG    1      -28.177  91.621  34.884  0.00  0.00    -0.166 F 
ATOM     25  F   LIG    1      -30.154  91.906  34.022  0.00  0.00    -0.166 F 
ATOM     26  F   LIG    1      -28.514  91.216  32.776  0.00  0.00    -0.166 F 
ENDBRANCH  15  23
ENDBRANCH   9  11
ENDBRANCH   8   9
BRANCH   8  27
ATOM     27  O   LIG    1      -26.829  85.667  35.688  0.00  0.00    -0.481 OA
ATOM     28  H   LIG    1      -26.524  86.525  35.364  0.00  0.00    +0.295 HD
ENDBRANCH   8  27
ENDBRANCH   4   7
BRANCH   1  29
ATOM     29  O   LIG    1      -24.801  80.152  37.299  0.00  0.00    -0.424 OA
BRANCH  29  33
ATOM     30  C   LIG    1      -24.518  78.490  33.473  0.00  0.00    -0.013 A 
ATOM     31  C   LIG    1      -25.403  77.975  34.431  0.00  0.00    +0.012 A 
ATOM     32  C   LIG    1      -25.480  78.541  35.709  0.00  0.00    +0.047 A 
ATOM     33  C   LIG    1      -24.644  79.604  36.047  0.00  0.00    +0.132 A 
ATOM     34  C   LIG    1      -23.689  80.034  35.124  0.00  0.00    +0.047 A 
ATOM     35  C   LIG    1      -23.676  79.542  33.831  0.00  0.00    +0.012 A 
BRANCH  30  39
ATOM     36  C   LIG    1      -20.956  77.230  31.078  0.00  0.00    +0.125 A 
ATOM     37  N   LIG    1      -21.898  77.603  31.923  0.00  0.00    -0.213 NA
ATOM     38  C   LIG    1      -23.211  77.572  31.518  0.00  0.00    +0.165 A 
ATOM     39  C   LIG    1      -24.387  77.940  32.141  0.00  0.00    +0.046 A 
ATOM     40  C   LIG    1      -25.401  77.643  31.201  0.00  0.00    +0.145 A 
ATOM     41  N   LIG    1      -24.933  77.140  30.062  0.00  0.00    -0.173 NA
ATOM     42  N   LIG    1      -23.591  77.111  30.252  0.00  0.00    -0.221 N 
ATOM     43  C   LIG    1      -22.621  76.691  29.357  0.00  0.00    +0.118 A 
ATOM     44  C   LIG    1      -21.325  76.730  29.695  0.00  0.00    +0.063 A 
BRANCH  36  46
ATOM     45  C   LIG    1      -18.588  76.734  30.568  0.00  0.00    +0.130 C 
ATOM     46  N   LIG    1      -19.603  77.294  31.462  0.00  0.00    -0.321 N 
ATOM     47  C   LIG    1      -19.116  78.260  32.435  0.00  0.00    +0.130 C 
ENDBRANCH  36  46
ENDBRANCH  30  39
ENDBRANCH  29  33
ENDBRANCH   1  29
TORSDOF 10
ENDMDL
