MODEL 1
REMARK VINA RESULT:      -6.3      0.000      0.000
REMARK  Name = pdb/CHEMBL3673440.pdb
REMARK                            x       y       z     vdW  Elec       q    Type
REMARK                         _______ _______ _______ _____ _____    ______ ____
ROOT
ATOM      1  N   LIG    1      -30.650  76.958  10.364  0.00  0.00    -0.308 N 
ATOM      2  C   LIG    1      -30.930  78.316  10.410  0.00  0.00    +0.070 A 
ATOM      3  C   LIG    1      -30.173  79.478  10.234  0.00  0.00    +0.028 A 
ATOM      4  C   LIG    1      -30.858  80.704  10.325  0.00  0.00    +0.011 A 
ATOM      5  C   LIG    1      -32.237  80.797  10.612  0.00  0.00    -0.014 A 
ATOM      6  C   LIG    1      -32.945  79.600  10.796  0.00  0.00    +0.038 A 
ATOM      7  C   LIG    1      -32.291  78.369  10.685  0.00  0.00    +0.091 A 
ATOM      8  N   LIG    1      -32.832  77.127  10.795  0.00  0.00    -0.215 NA
ATOM      9  C   LIG    1      -31.852  76.306  10.552  0.00  0.00    +0.194 A 
ENDROOT
BRANCH   5  10
ATOM     10  C   LIG    1      -32.929  82.096  10.729  0.00  0.00    +0.000 A 
ATOM     11  C   LIG    1      -32.260  83.310  10.581  0.00  0.00    +0.120 A 
ATOM     12  N   LIG    1      -32.830  84.533  10.685  0.00  0.00    -0.252 NA
ATOM     13  C   LIG    1      -34.149  84.584  10.996  0.00  0.00    +0.100 A 
ATOM     14  C   LIG    1      -34.911  83.438  11.171  0.00  0.00    +0.032 A 
ATOM     15  C   LIG    1      -34.298  82.195  11.025  0.00  0.00    +0.012 A 
BRANCH  13  16
ATOM     16  P   LIG    1      -34.898  86.180  11.177  0.00  0.00    +0.128 P 
ATOM     17  C   LIG    1      -35.085  86.894   9.537  0.00  0.00    +0.087 C 
ATOM     18  C   LIG    1      -33.707  87.279  11.955  0.00  0.00    +0.087 C 
ATOM     19  O   LIG    1      -36.221  86.223  11.902  0.00  0.00    -0.315 OA
ENDBRANCH  13  16
ENDBRANCH   5  10
BRANCH   9  20
ATOM     20  N   LIG    1      -32.039  74.982  10.435  0.00  0.00    -0.329 N 
ATOM     21  H   LIG    1      -31.387  74.490  11.043  0.00  0.00    +0.145 HD
ATOM     22  H   LIG    1      -32.961  74.702  10.770  0.00  0.00    +0.145 HD
ENDBRANCH   9  20
BRANCH   1  23
ATOM     23  C   LIG    1      -29.315  76.393  10.185  0.00  0.00    +0.160 C 
BRANCH  23  27
ATOM     24  C   LIG    1      -26.783  77.337  13.616  0.00  0.00    +0.162 A 
ATOM     25  C   LIG    1      -26.494  77.793  12.277  0.00  0.00    +0.162 A 
ATOM     26  C   LIG    1      -27.259  77.358  11.172  0.00  0.00    +0.054 A 
ATOM     27  C   LIG    1      -28.391  76.601  11.347  0.00  0.00    -0.024 A 
ATOM     28  C   LIG    1      -28.677  76.123  12.623  0.00  0.00    +0.009 A 
ATOM     29  C   LIG    1      -27.848  76.432  13.734  0.00  0.00    +0.050 A 
BRANCH  25  30
ATOM     30  O   LIG    1      -25.575  78.712  11.722  0.00  0.00    -0.491 OA
ATOM     31  C   LIG    1      -26.333  79.848  11.517  0.00  0.00    +0.277 C 
ENDBRANCH  25  30
BRANCH  24  32
ATOM     32  O   LIG    1      -26.099  77.635  14.829  0.00  0.00    -0.484 OA
BRANCH  32  33
ATOM     33  C   LIG    1      -25.922  78.993  15.247  0.00  0.00    +0.264 C 
BRANCH  33  37
ATOM     34  C   LIG    1      -22.583  81.415  15.428  0.00  0.00    +0.120 A 
ATOM     35  C   LIG    1      -22.620  80.129  16.039  0.00  0.00    +0.046 A 
ATOM     36  C   LIG    1      -23.700  79.327  15.930  0.00  0.00    +0.010 A 
ATOM     37  C   LIG    1      -24.640  79.794  15.176  0.00  0.00    -0.010 A 
ATOM     38  C   LIG    1      -24.745  81.091  14.555  0.00  0.00    +0.010 A 
ATOM     39  C   LIG    1      -23.699  81.855  14.676  0.00  0.00    +0.046 A 
BRANCH  34  41
ATOM     40  C   LIG    1      -20.278  81.604  15.815  0.00  0.00    +0.277 C 
ATOM     41  O   LIG    1      -21.481  82.282  15.529  0.00  0.00    -0.495 OA
ENDBRANCH  34  41
ENDBRANCH  33  37
ENDBRANCH  32  33
ENDBRANCH  24  32
ENDBRANCH  23  27
ENDBRANCH   1  23
TORSDOF 10
ENDMDL
MODEL 2
REMARK VINA RESULT:      -6.2     17.696     20.148
REMARK  Name = pdb/CHEMBL3673440.pdb
REMARK                            x       y       z     vdW  Elec       q    Type
REMARK                         _______ _______ _______ _____ _____    ______ ____
ROOT
ATOM      1  N   LIG    1      -31.123  71.275  32.048  0.00  0.00    -0.308 N 
ATOM      2  C   LIG    1      -31.834  71.031  30.883  0.00  0.00    +0.070 A 
ATOM      3  C   LIG    1      -32.670  71.799  30.068  0.00  0.00    +0.028 A 
ATOM      4  C   LIG    1      -33.183  71.176  28.914  0.00  0.00    +0.011 A 
ATOM      5  C   LIG    1      -32.915  69.831  28.581  0.00  0.00    -0.014 A 
ATOM      6  C   LIG    1      -32.084  69.100  29.445  0.00  0.00    +0.038 A 
ATOM      7  C   LIG    1      -31.542  69.706  30.582  0.00  0.00    +0.091 A 
ATOM      8  N   LIG    1      -30.696  69.157  31.493  0.00  0.00    -0.215 NA
ATOM      9  C   LIG    1      -30.421  70.119  32.326  0.00  0.00    +0.194 A 
ENDROOT
BRANCH   5  10
ATOM     10  C   LIG    1      -33.486  69.190  27.380  0.00  0.00    +0.000 A 
ATOM     11  C   LIG    1      -33.792  69.912  26.228  0.00  0.00    +0.120 A 
ATOM     12  N   LIG    1      -34.325  69.390  25.098  0.00  0.00    -0.252 NA
ATOM     13  C   LIG    1      -34.620  68.067  25.099  0.00  0.00    +0.100 A 
ATOM     14  C   LIG    1      -34.362  67.254  26.193  0.00  0.00    +0.032 A 
ATOM     15  C   LIG    1      -33.784  67.819  27.329  0.00  0.00    +0.012 A 
BRANCH  13  16
ATOM     16  P   LIG    1      -35.357  67.380  23.641  0.00  0.00    +0.128 P 
ATOM     17  C   LIG    1      -36.949  68.181  23.395  0.00  0.00    +0.087 C 
ATOM     18  C   LIG    1      -35.818  65.678  23.987  0.00  0.00    +0.087 C 
ATOM     19  O   LIG    1      -34.544  67.469  22.372  0.00  0.00    -0.315 OA
ENDBRANCH  13  16
ENDBRANCH   5  10
BRANCH   9  20
ATOM     20  N   LIG    1      -29.499  69.988  33.293  0.00  0.00    -0.329 N 
ATOM     21  H   LIG    1      -29.790  70.514  34.115  0.00  0.00    +0.145 HD
ATOM     22  H   LIG    1      -29.430  69.024  33.617  0.00  0.00    +0.145 HD
ENDBRANCH   9  20
BRANCH   1  23
ATOM     23  C   LIG    1      -31.179  72.522  32.807  0.00  0.00    +0.160 C 
BRANCH  23  27
ATOM     24  C   LIG    1      -28.584  75.845  31.666  0.00  0.00    +0.162 A 
ATOM     25  C   LIG    1      -29.927  75.686  31.159  0.00  0.00    +0.162 A 
ATOM     26  C   LIG    1      -30.687  74.530  31.444  0.00  0.00    +0.054 A 
ATOM     27  C   LIG    1      -30.234  73.583  32.329  0.00  0.00    -0.024 A 
ATOM     28  C   LIG    1      -28.932  73.696  32.809  0.00  0.00    +0.009 A 
ATOM     29  C   LIG    1      -28.093  74.779  32.433  0.00  0.00    +0.050 A 
BRANCH  25  30
ATOM     30  O   LIG    1      -30.805  76.503  30.411  0.00  0.00    -0.491 OA
ATOM     31  C   LIG    1      -31.229  75.676  29.389  0.00  0.00    +0.277 C 
ENDBRANCH  25  30
BRANCH  24  32
ATOM     32  O   LIG    1      -27.666  76.912  31.447  0.00  0.00    -0.484 OA
BRANCH  32  33
ATOM     33  C   LIG    1      -26.379  76.901  32.073  0.00  0.00    +0.264 C 
BRANCH  33  37
ATOM     34  C   LIG    1      -22.965  76.595  29.770  0.00  0.00    +0.120 A 
ATOM     35  C   LIG    1      -23.630  77.838  29.979  0.00  0.00    +0.046 A 
ATOM     36  C   LIG    1      -24.716  77.932  30.774  0.00  0.00    +0.010 A 
ATOM     37  C   LIG    1      -25.039  76.832  31.371  0.00  0.00    -0.010 A 
ATOM     38  C   LIG    1      -24.488  75.511  31.202  0.00  0.00    +0.010 A 
ATOM     39  C   LIG    1      -23.446  75.436  30.426  0.00  0.00    +0.046 A 
BRANCH  34  41
ATOM     40  C   LIG    1      -20.648  76.888  29.562  0.00  0.00    +0.277 C 
ATOM     41  O   LIG    1      -21.839  76.456  28.941  0.00  0.00    -0.495 OA
ENDBRANCH  34  41
ENDBRANCH  33  37
ENDBRANCH  32  33
ENDBRANCH  24  32
ENDBRANCH  23  27
ENDBRANCH   1  23
TORSDOF 10
ENDMDL
MODEL 3
REMARK VINA RESULT:      -6.2     14.929     17.030
REMARK  Name = pdb/CHEMBL3673440.pdb
REMARK                            x       y       z     vdW  Elec       q    Type
REMARK                         _______ _______ _______ _____ _____    ______ ____
ROOT
ATOM      1  N   LIG    1      -37.966  69.731  24.324  0.00  0.00    -0.308 N 
ATOM      2  C   LIG    1      -38.648  70.933  24.204  0.00  0.00    +0.070 A 
ATOM      3  C   LIG    1      -39.928  71.293  23.774  0.00  0.00    +0.028 A 
ATOM      4  C   LIG    1      -40.263  72.659  23.845  0.00  0.00    +0.011 A 
ATOM      5  C   LIG    1      -39.363  73.651  24.290  0.00  0.00    -0.014 A 
ATOM      6  C   LIG    1      -38.085  73.236  24.693  0.00  0.00    +0.038 A 
ATOM      7  C   LIG    1      -37.739  71.882  24.657  0.00  0.00    +0.091 A 
ATOM      8  N   LIG    1      -36.567  71.312  25.045  0.00  0.00    -0.215 NA
ATOM      9  C   LIG    1      -36.742  70.032  24.886  0.00  0.00    +0.194 A 
ENDROOT
BRANCH   5  10
ATOM     10  C   LIG    1      -39.727  75.082  24.330  0.00  0.00    +0.000 A 
ATOM     11  C   LIG    1      -38.941  76.030  24.982  0.00  0.00    +0.120 A 
ATOM     12  N   LIG    1      -39.221  77.352  25.066  0.00  0.00    -0.252 NA
ATOM     13  C   LIG    1      -40.376  77.783  24.503  0.00  0.00    +0.100 A 
ATOM     14  C   LIG    1      -41.236  76.925  23.832  0.00  0.00    +0.032 A 
ATOM     15  C   LIG    1      -40.901  75.575  23.740  0.00  0.00    +0.012 A 
BRANCH  13  16
ATOM     16  P   LIG    1      -40.774  79.504  24.641  0.00  0.00    +0.128 P 
ATOM     17  C   LIG    1      -39.754  80.406  23.466  0.00  0.00    +0.087 C 
ATOM     18  C   LIG    1      -40.173  80.099  26.227  0.00  0.00    +0.087 C 
ATOM     19  O   LIG    1      -42.224  79.877  24.443  0.00  0.00    -0.315 OA
ENDBRANCH  13  16
ENDBRANCH   5  10
BRANCH   9  20
ATOM     20  N   LIG    1      -35.838  69.129  25.299  0.00  0.00    -0.329 N 
ATOM     21  H   LIG    1      -35.289  68.808  24.504  0.00  0.00    +0.145 HD
ATOM     22  H   LIG    1      -35.154  69.545  25.930  0.00  0.00    +0.145 HD
ENDBRANCH   9  20
BRANCH   1  23
ATOM     23  C   LIG    1      -38.485  68.437  23.887  0.00  0.00    +0.160 C 
BRANCH  23  27
ATOM     24  C   LIG    1      -37.573  67.175  19.807  0.00  0.00    +0.162 A 
ATOM     25  C   LIG    1      -37.802  66.243  20.885  0.00  0.00    +0.162 A 
ATOM     26  C   LIG    1      -37.961  66.686  22.217  0.00  0.00    +0.054 A 
ATOM     27  C   LIG    1      -38.047  68.023  22.515  0.00  0.00    -0.024 A 
ATOM     28  C   LIG    1      -37.800  68.944  21.500  0.00  0.00    +0.009 A 
ATOM     29  C   LIG    1      -37.503  68.527  20.175  0.00  0.00    +0.050 A 
BRANCH  25  30
ATOM     30  O   LIG    1      -37.987  64.843  20.960  0.00  0.00    -0.491 OA
ATOM     31  C   LIG    1      -36.746  64.370  21.334  0.00  0.00    +0.277 C 
ENDBRANCH  25  30
BRANCH  24  32
ATOM     32  O   LIG    1      -37.350  66.908  18.426  0.00  0.00    -0.484 OA
BRANCH  32  33
ATOM     33  C   LIG    1      -36.105  66.354  17.986  0.00  0.00    +0.264 C 
BRANCH  33  37
ATOM     34  C   LIG    1      -32.172  67.373  18.721  0.00  0.00    +0.120 A 
ATOM     35  C   LIG    1      -32.838  67.742  17.517  0.00  0.00    +0.046 A 
ATOM     36  C   LIG    1      -34.138  67.445  17.311  0.00  0.00    +0.010 A 
ATOM     37  C   LIG    1      -34.723  66.878  18.315  0.00  0.00    -0.010 A 
ATOM     38  C   LIG    1      -34.152  66.408  19.552  0.00  0.00    +0.010 A 
ATOM     39  C   LIG    1      -32.896  66.695  19.732  0.00  0.00    +0.046 A 
BRANCH  34  41
ATOM     40  C   LIG    1      -30.381  68.836  18.330  0.00  0.00    +0.277 C 
ATOM     41  O   LIG    1      -30.817  67.655  18.967  0.00  0.00    -0.495 OA
ENDBRANCH  34  41
ENDBRANCH  33  37
ENDBRANCH  32  33
ENDBRANCH  24  32
ENDBRANCH  23  27
ENDBRANCH   1  23
TORSDOF 10
ENDMDL
MODEL 4
REMARK VINA RESULT:      -6.1     14.225     16.278
REMARK  Name = pdb/CHEMBL3673440.pdb
REMARK                            x       y       z     vdW  Elec       q    Type
REMARK                         _______ _______ _______ _____ _____    ______ ____
ROOT
ATOM      1  N   LIG    1      -36.267  67.569  23.656  0.00  0.00    -0.308 N 
ATOM      2  C   LIG    1      -37.108  68.670  23.607  0.00  0.00    +0.070 A 
ATOM      3  C   LIG    1      -38.304  68.961  22.944  0.00  0.00    +0.028 A 
ATOM      4  C   LIG    1      -38.884  70.218  23.198  0.00  0.00    +0.011 A 
ATOM      5  C   LIG    1      -38.298  71.180  24.049  0.00  0.00    -0.014 A 
ATOM      6  C   LIG    1      -37.089  70.842  24.676  0.00  0.00    +0.038 A 
ATOM      7  C   LIG    1      -36.508  69.589  24.460  0.00  0.00    +0.091 A 
ATOM      8  N   LIG    1      -35.369  69.094  25.013  0.00  0.00    -0.215 NA
ATOM      9  C   LIG    1      -35.273  67.877  24.562  0.00  0.00    +0.194 A 
ENDROOT
BRANCH   5  10
ATOM     10  C   LIG    1      -38.912  72.503  24.279  0.00  0.00    +0.000 A 
ATOM     11  C   LIG    1      -38.251  73.517  24.969  0.00  0.00    +0.120 A 
ATOM     12  N   LIG    1      -38.757  74.747  25.223  0.00  0.00    -0.252 NA
ATOM     13  C   LIG    1      -40.023  75.000  24.807  0.00  0.00    +0.100 A 
ATOM     14  C   LIG    1      -40.774  74.061  24.116  0.00  0.00    +0.032 A 
ATOM     15  C   LIG    1      -40.209  72.816  23.845  0.00  0.00    +0.012 A 
BRANCH  13  16
ATOM     16  P   LIG    1      -40.713  76.591  25.171  0.00  0.00    +0.128 P 
ATOM     17  C   LIG    1      -42.458  76.367  25.545  0.00  0.00    +0.087 C 
ATOM     18  C   LIG    1      -40.753  77.552  23.653  0.00  0.00    +0.087 C 
ATOM     19  O   LIG    1      -40.053  77.372  26.283  0.00  0.00    -0.315 OA
ENDBRANCH  13  16
ENDBRANCH   5  10
BRANCH   9  20
ATOM     20  N   LIG    1      -34.338  67.021  25.004  0.00  0.00    -0.329 N 
ATOM     21  H   LIG    1      -34.210  67.144  26.007  0.00  0.00    +0.145 HD
ATOM     22  H   LIG    1      -34.638  66.052  24.902  0.00  0.00    +0.145 HD
ENDBRANCH   9  20
BRANCH   1  23
ATOM     23  C   LIG    1      -36.436  66.362  22.850  0.00  0.00    +0.160 C 
BRANCH  23  27
ATOM     24  C   LIG    1      -34.093  66.695  19.180  0.00  0.00    +0.162 A 
ATOM     25  C   LIG    1      -35.514  66.945  19.230  0.00  0.00    +0.162 A 
ATOM     26  C   LIG    1      -36.262  66.698  20.403  0.00  0.00    +0.054 A 
ATOM     27  C   LIG    1      -35.643  66.348  21.578  0.00  0.00    -0.024 A 
ATOM     28  C   LIG    1      -34.279  66.071  21.550  0.00  0.00    +0.009 A 
ATOM     29  C   LIG    1      -33.523  66.180  20.353  0.00  0.00    +0.050 A 
BRANCH  25  30
ATOM     30  O   LIG    1      -36.456  67.490  18.327  0.00  0.00    -0.491 OA
ATOM     31  C   LIG    1      -37.495  66.581  18.352  0.00  0.00    +0.277 C 
ENDBRANCH  25  30
BRANCH  24  32
ATOM     32  O   LIG    1      -33.198  66.845  18.082  0.00  0.00    -0.484 OA
BRANCH  32  33
ATOM     33  C   LIG    1      -32.815  68.149  17.631  0.00  0.00    +0.264 C 
BRANCH  33  37
ATOM     34  C   LIG    1      -29.326  70.071  18.720  0.00  0.00    +0.120 A 
ATOM     35  C   LIG    1      -29.457  68.653  18.768  0.00  0.00    +0.046 A 
ATOM     36  C   LIG    1      -30.586  68.035  18.363  0.00  0.00    +0.010 A 
ATOM     37  C   LIG    1      -31.481  68.825  17.869  0.00  0.00    -0.010 A 
ATOM     38  C   LIG    1      -31.491  70.266  17.816  0.00  0.00    +0.010 A 
ATOM     39  C   LIG    1      -30.398  70.847  18.218  0.00  0.00    +0.046 A 
BRANCH  34  41
ATOM     40  C   LIG    1      -26.983  70.163  18.658  0.00  0.00    +0.277 C 
ATOM     41  O   LIG    1      -28.171  70.750  19.143  0.00  0.00    -0.495 OA
ENDBRANCH  34  41
ENDBRANCH  33  37
ENDBRANCH  32  33
ENDBRANCH  24  32
ENDBRANCH  23  27
ENDBRANCH   1  23
TORSDOF 10
ENDMDL
MODEL 5
REMARK VINA RESULT:      -6.0     15.278     17.324
REMARK  Name = pdb/CHEMBL3673440.pdb
REMARK                            x       y       z     vdW  Elec       q    Type
REMARK                         _______ _______ _______ _____ _____    ______ ____
ROOT
ATOM      1  N   LIG    1      -41.040  70.151  23.488  0.00  0.00    -0.308 N 
ATOM      2  C   LIG    1      -40.632  71.445  23.774  0.00  0.00    +0.070 A 
ATOM      3  C   LIG    1      -39.560  71.999  24.479  0.00  0.00    +0.028 A 
ATOM      4  C   LIG    1      -39.474  73.405  24.506  0.00  0.00    +0.011 A 
ATOM      5  C   LIG    1      -40.425  74.247  23.892  0.00  0.00    -0.014 A 
ATOM      6  C   LIG    1      -41.491  73.637  23.213  0.00  0.00    +0.038 A 
ATOM      7  C   LIG    1      -41.582  72.244  23.149  0.00  0.00    +0.091 A 
ATOM      8  N   LIG    1      -42.521  71.500  22.506  0.00  0.00    -0.215 NA
ATOM      9  C   LIG    1      -42.152  70.264  22.677  0.00  0.00    +0.194 A 
ENDROOT
BRANCH   5  10
ATOM     10  C   LIG    1      -40.329  75.719  23.957  0.00  0.00    +0.000 A 
ATOM     11  C   LIG    1      -41.419  76.546  23.692  0.00  0.00    +0.120 A 
ATOM     12  N   LIG    1      -41.398  77.899  23.724  0.00  0.00    -0.252 NA
ATOM     13  C   LIG    1      -40.214  78.499  23.998  0.00  0.00    +0.100 A 
ATOM     14  C   LIG    1      -39.064  77.774  24.272  0.00  0.00    +0.032 A 
ATOM     15  C   LIG    1      -39.130  76.381  24.261  0.00  0.00    +0.012 A 
BRANCH  13  16
ATOM     16  P   LIG    1      -40.164  80.271  24.001  0.00  0.00    +0.128 P 
ATOM     17  C   LIG    1      -39.386  80.801  25.534  0.00  0.00    +0.087 C 
ATOM     18  C   LIG    1      -41.844  80.886  24.176  0.00  0.00    +0.087 C 
ATOM     19  O   LIG    1      -39.472  80.926  22.830  0.00  0.00    -0.315 OA
ENDBRANCH  13  16
ENDBRANCH   5  10
BRANCH   9  20
ATOM     20  N   LIG    1      -42.766  69.241  22.062  0.00  0.00    -0.329 N 
ATOM     21  H   LIG    1      -43.713  69.143  22.425  0.00  0.00    +0.145 HD
ATOM     22  H   LIG    1      -42.893  69.424  21.066  0.00  0.00    +0.145 HD
ENDBRANCH   9  20
BRANCH   1  23
ATOM     23  C   LIG    1      -40.397  68.945  24.005  0.00  0.00    +0.160 C 
BRANCH  23  27
ATOM     24  C   LIG    1      -36.171  68.272  23.136  0.00  0.00    +0.162 A 
ATOM     25  C   LIG    1      -36.710  68.256  24.475  0.00  0.00    +0.162 A 
ATOM     26  C   LIG    1      -38.054  68.610  24.730  0.00  0.00    +0.054 A 
ATOM     27  C   LIG    1      -38.933  68.843  23.702  0.00  0.00    -0.024 A 
ATOM     28  C   LIG    1      -38.433  68.895  22.403  0.00  0.00    +0.009 A 
ATOM     29  C   LIG    1      -37.058  68.676  22.127  0.00  0.00    +0.050 A 
BRANCH  25  30
ATOM     30  O   LIG    1      -36.204  67.879  25.740  0.00  0.00    -0.491 OA
ATOM     31  C   LIG    1      -36.479  66.528  25.813  0.00  0.00    +0.277 C 
ENDBRANCH  25  30
BRANCH  24  32
ATOM     32  O   LIG    1      -34.844  67.990  22.703  0.00  0.00    -0.484 OA
BRANCH  32  33
ATOM     33  C   LIG    1      -34.535  66.739  22.078  0.00  0.00    +0.264 C 
BRANCH  33  37
ATOM     34  C   LIG    1      -33.614  66.622  18.055  0.00  0.00    +0.120 A 
ATOM     35  C   LIG    1      -32.608  66.598  19.064  0.00  0.00    +0.046 A 
ATOM     36  C   LIG    1      -32.925  66.586  20.376  0.00  0.00    +0.010 A 
ATOM     37  C   LIG    1      -34.193  66.524  20.619  0.00  0.00    -0.010 A 
ATOM     38  C   LIG    1      -35.299  66.599  19.698  0.00  0.00    +0.010 A 
ATOM     39  C   LIG    1      -34.977  66.616  18.438  0.00  0.00    +0.046 A 
BRANCH  34  41
ATOM     40  C   LIG    1      -31.978  66.979  16.413  0.00  0.00    +0.277 C 
ATOM     41  O   LIG    1      -33.322  66.645  16.680  0.00  0.00    -0.495 OA
ENDBRANCH  34  41
ENDBRANCH  33  37
ENDBRANCH  32  33
ENDBRANCH  24  32
ENDBRANCH  23  27
ENDBRANCH   1  23
TORSDOF 10
ENDMDL
MODEL 6
REMARK VINA RESULT:      -6.0     19.146     23.392
REMARK  Name = pdb/CHEMBL3673440.pdb
REMARK                            x       y       z     vdW  Elec       q    Type
REMARK                         _______ _______ _______ _____ _____    ______ ____
ROOT
ATOM      1  N   LIG    1      -24.162  76.832  31.742  0.00  0.00    -0.308 N 
ATOM      2  C   LIG    1      -23.325  77.537  32.594  0.00  0.00    +0.070 A 
ATOM      3  C   LIG    1      -21.941  77.598  32.778  0.00  0.00    +0.028 A 
ATOM      4  C   LIG    1      -21.466  78.498  33.751  0.00  0.00    +0.011 A 
ATOM      5  C   LIG    1      -22.319  79.293  34.546  0.00  0.00    -0.014 A 
ATOM      6  C   LIG    1      -23.701  79.180  34.331  0.00  0.00    +0.038 A 
ATOM      7  C   LIG    1      -24.195  78.312  33.352  0.00  0.00    +0.091 A 
ATOM      8  N   LIG    1      -25.491  78.113  32.994  0.00  0.00    -0.215 NA
ATOM      9  C   LIG    1      -25.444  77.270  32.004  0.00  0.00    +0.194 A 
ENDROOT
BRANCH   5  10
ATOM     10  C   LIG    1      -21.800  80.211  35.579  0.00  0.00    +0.000 A 
ATOM     11  C   LIG    1      -22.511  81.333  36.001  0.00  0.00    +0.120 A 
ATOM     12  N   LIG    1      -22.090  82.219  36.934  0.00  0.00    -0.252 NA
ATOM     13  C   LIG    1      -20.863  82.021  37.475  0.00  0.00    +0.100 A 
ATOM     14  C   LIG    1      -20.067  80.940  37.125  0.00  0.00    +0.032 A 
ATOM     15  C   LIG    1      -20.545  80.031  36.183  0.00  0.00    +0.012 A 
BRANCH  13  16
ATOM     16  P   LIG    1      -20.282  83.198  38.667  0.00  0.00    +0.128 P 
ATOM     17  C   LIG    1      -21.717  83.932  39.465  0.00  0.00    +0.087 C 
ATOM     18  C   LIG    1      -19.563  84.589  37.786  0.00  0.00    +0.087 C 
ATOM     19  O   LIG    1      -19.331  82.677  39.717  0.00  0.00    -0.315 OA
ENDBRANCH  13  16
ENDBRANCH   5  10
BRANCH   9  20
ATOM     20  N   LIG    1      -26.535  76.938  31.294  0.00  0.00    -0.329 N 
ATOM     21  H   LIG    1      -27.037  76.190  31.769  0.00  0.00    +0.145 HD
ATOM     22  H   LIG    1      -27.203  77.707  31.252  0.00  0.00    +0.145 HD
ENDBRANCH   9  20
BRANCH   1  23
ATOM     23  C   LIG    1      -23.713  75.810  30.799  0.00  0.00    +0.160 C 
BRANCH  23  27
ATOM     24  C   LIG    1      -24.215  71.597  31.833  0.00  0.00    +0.162 A 
ATOM     25  C   LIG    1      -25.303  72.429  31.377  0.00  0.00    +0.162 A 
ATOM     26  C   LIG    1      -25.133  73.817  31.180  0.00  0.00    +0.054 A 
ATOM     27  C   LIG    1      -23.894  74.401  31.277  0.00  0.00    -0.024 A 
ATOM     28  C   LIG    1      -22.833  73.628  31.744  0.00  0.00    +0.009 A 
ATOM     29  C   LIG    1      -23.004  72.259  32.080  0.00  0.00    +0.050 A 
BRANCH  25  30
ATOM     30  O   LIG    1      -26.635  72.182  30.973  0.00  0.00    -0.491 OA
ATOM     31  C   LIG    1      -27.329  72.109  32.165  0.00  0.00    +0.277 C 
ENDBRANCH  25  30
BRANCH  24  32
ATOM     32  O   LIG    1      -24.217  70.202  32.122  0.00  0.00    -0.484 OA
BRANCH  32  33
ATOM     33  C   LIG    1      -23.819  69.254  31.125  0.00  0.00    +0.264 C 
BRANCH  33  37
ATOM     34  C   LIG    1      -24.498  70.039  27.128  0.00  0.00    +0.120 A 
ATOM     35  C   LIG    1      -23.185  69.989  27.679  0.00  0.00    +0.046 A 
ATOM     36  C   LIG    1      -22.975  69.683  28.976  0.00  0.00    +0.010 A 
ATOM     37  C   LIG    1      -24.044  69.373  29.633  0.00  0.00    -0.010 A 
ATOM     38  C   LIG    1      -25.420  69.439  29.210  0.00  0.00    +0.010 A 
ATOM     39  C   LIG    1      -25.606  69.743  27.958  0.00  0.00    +0.046 A 
BRANCH  34  41
ATOM     40  C   LIG    1      -26.110  70.185  25.432  0.00  0.00    +0.277 C 
ATOM     41  O   LIG    1      -24.756  70.364  25.786  0.00  0.00    -0.495 OA
ENDBRANCH  34  41
ENDBRANCH  33  37
ENDBRANCH  32  33
ENDBRANCH  24  32
ENDBRANCH  23  27
ENDBRANCH   1  23
TORSDOF 10
ENDMDL
MODEL 7
REMARK VINA RESULT:      -5.9     22.541     27.485
REMARK  Name = pdb/CHEMBL3673440.pdb
REMARK                            x       y       z     vdW  Elec       q    Type
REMARK                         _______ _______ _______ _____ _____    ______ ____
ROOT
ATOM      1  N   LIG    1      -21.524  82.942  38.636  0.00  0.00    -0.308 N 
ATOM      2  C   LIG    1      -21.094  82.039  37.675  0.00  0.00    +0.070 A 
ATOM      3  C   LIG    1      -19.934  81.280  37.494  0.00  0.00    +0.028 A 
ATOM      4  C   LIG    1      -19.901  80.425  36.376  0.00  0.00    +0.011 A 
ATOM      5  C   LIG    1      -20.955  80.335  35.442  0.00  0.00    -0.014 A 
ATOM      6  C   LIG    1      -22.089  81.132  35.663  0.00  0.00    +0.038 A 
ATOM      7  C   LIG    1      -22.156  81.969  36.781  0.00  0.00    +0.091 A 
ATOM      8  N   LIG    1      -23.188  82.770  37.159  0.00  0.00    -0.215 NA
ATOM      9  C   LIG    1      -22.811  83.298  38.288  0.00  0.00    +0.194 A 
ENDROOT
BRANCH   5  10
ATOM     10  C   LIG    1      -20.886  79.450  34.262  0.00  0.00    +0.000 A 
ATOM     11  C   LIG    1      -21.978  78.697  33.834  0.00  0.00    +0.120 A 
ATOM     12  N   LIG    1      -21.981  77.861  32.770  0.00  0.00    -0.252 NA
ATOM     13  C   LIG    1      -20.819  77.715  32.087  0.00  0.00    +0.100 A 
ATOM     14  C   LIG    1      -19.669  78.412  32.428  0.00  0.00    +0.032 A 
ATOM     15  C   LIG    1      -19.711  79.288  33.512  0.00  0.00    +0.012 A 
BRANCH  13  16
ATOM     16  P   LIG    1      -20.797  76.591  30.717  0.00  0.00    +0.128 P 
ATOM     17  C   LIG    1      -22.475  76.460  30.081  0.00  0.00    +0.087 C 
ATOM     18  C   LIG    1      -20.481  74.937  31.346  0.00  0.00    +0.087 C 
ATOM     19  O   LIG    1      -19.853  76.925  29.587  0.00  0.00    -0.315 OA
ENDBRANCH  13  16
ENDBRANCH   5  10
BRANCH   9  20
ATOM     20  N   LIG    1      -23.636  84.047  39.038  0.00  0.00    -0.329 N 
ATOM     21  H   LIG    1      -23.461  85.033  38.856  0.00  0.00    +0.145 HD
ATOM     22  H   LIG    1      -24.611  83.908  38.776  0.00  0.00    +0.145 HD
ENDBRANCH   9  20
BRANCH   1  23
ATOM     23  C   LIG    1      -20.709  83.413  39.753  0.00  0.00    +0.160 C 
BRANCH  23  27
ATOM     24  C   LIG    1      -18.232  86.974  39.250  0.00  0.00    +0.162 A 
ATOM     25  C   LIG    1      -19.467  86.975  39.998  0.00  0.00    +0.162 A 
ATOM     26  C   LIG    1      -20.308  85.841  40.027  0.00  0.00    +0.054 A 
ATOM     27  C   LIG    1      -19.916  84.651  39.465  0.00  0.00    -0.024 A 
ATOM     28  C   LIG    1      -18.744  84.630  38.713  0.00  0.00    +0.009 A 
ATOM     29  C   LIG    1      -17.944  85.792  38.552  0.00  0.00    +0.050 A 
BRANCH  25  30
ATOM     30  O   LIG    1      -20.103  87.901  40.856  0.00  0.00    -0.491 OA
ATOM     31  C   LIG    1      -19.342  87.855  42.007  0.00  0.00    +0.277 C 
ENDBRANCH  25  30
BRANCH  24  32
ATOM     32  O   LIG    1      -17.291  88.029  39.076  0.00  0.00    -0.484 OA
BRANCH  32  33
ATOM     33  C   LIG    1      -17.100  88.624  37.787  0.00  0.00    +0.264 C 
BRANCH  33  37
ATOM     34  C   LIG    1      -19.629  91.329  35.960  0.00  0.00    +0.120 A 
ATOM     35  C   LIG    1      -19.781  90.952  37.325  0.00  0.00    +0.046 A 
ATOM     36  C   LIG    1      -18.918  90.104  37.924  0.00  0.00    +0.010 A 
ATOM     37  C   LIG    1      -17.925  89.739  37.181  0.00  0.00    -0.010 A 
ATOM     38  C   LIG    1      -17.691  90.003  35.783  0.00  0.00    +0.010 A 
ATOM     39  C   LIG    1      -18.536  90.816  35.219  0.00  0.00    +0.046 A 
BRANCH  34  41
ATOM     40  C   LIG    1      -20.293  93.553  35.629  0.00  0.00    +0.277 C 
ATOM     41  O   LIG    1      -20.513  92.199  35.300  0.00  0.00    -0.495 OA
ENDBRANCH  34  41
ENDBRANCH  33  37
ENDBRANCH  32  33
ENDBRANCH  24  32
ENDBRANCH  23  27
ENDBRANCH   1  23
TORSDOF 10
ENDMDL
MODEL 8
REMARK VINA RESULT:      -5.9      1.485      2.293
REMARK  Name = pdb/CHEMBL3673440.pdb
REMARK                            x       y       z     vdW  Elec       q    Type
REMARK                         _______ _______ _______ _____ _____    ______ ____
ROOT
ATOM      1  N   LIG    1      -30.303  76.862  10.448  0.00  0.00    -0.308 N 
ATOM      2  C   LIG    1      -30.930  78.095  10.352  0.00  0.00    +0.070 A 
ATOM      3  C   LIG    1      -30.495  79.399  10.101  0.00  0.00    +0.028 A 
ATOM      4  C   LIG    1      -31.482  80.401  10.043  0.00  0.00    +0.011 A 
ATOM      5  C   LIG    1      -32.853  80.144  10.257  0.00  0.00    -0.014 A 
ATOM      6  C   LIG    1      -33.234  78.820  10.523  0.00  0.00    +0.038 A 
ATOM      7  C   LIG    1      -32.274  77.804  10.559  0.00  0.00    +0.091 A 
ATOM      8  N   LIG    1      -32.477  76.475  10.763  0.00  0.00    -0.215 NA
ATOM      9  C   LIG    1      -31.301  75.930  10.643  0.00  0.00    +0.194 A 
ENDROOT
BRANCH   5  10
ATOM     10  C   LIG    1      -33.869  81.216  10.218  0.00  0.00    +0.000 A 
ATOM     11  C   LIG    1      -33.864  82.276  11.124  0.00  0.00    +0.120 A 
ATOM     12  N   LIG    1      -34.768  83.283  11.151  0.00  0.00    -0.252 NA
ATOM     13  C   LIG    1      -35.780  83.239  10.250  0.00  0.00    +0.100 A 
ATOM     14  C   LIG    1      -35.885  82.228   9.306  0.00  0.00    +0.032 A 
ATOM     15  C   LIG    1      -34.919  81.223   9.288  0.00  0.00    +0.012 A 
BRANCH  13  16
ATOM     16  P   LIG    1      -36.994  84.530  10.302  0.00  0.00    +0.128 P 
ATOM     17  C   LIG    1      -36.346  85.858  11.327  0.00  0.00    +0.087 C 
ATOM     18  C   LIG    1      -38.402  83.945  11.253  0.00  0.00    +0.087 C 
ATOM     19  O   LIG    1      -37.438  85.088   8.972  0.00  0.00    -0.315 OA
ENDBRANCH  13  16
ENDBRANCH   5  10
BRANCH   9  20
ATOM     20  N   LIG    1      -31.126  74.598  10.644  0.00  0.00    -0.329 N 
ATOM     21  H   LIG    1      -30.679  74.313   9.775  0.00  0.00    +0.145 HD
ATOM     22  H   LIG    1      -30.476  74.306  11.374  0.00  0.00    +0.145 HD
ENDBRANCH   9  20
BRANCH   1  23
ATOM     23  C   LIG    1      -28.856  76.662  10.385  0.00  0.00    +0.160 C 
BRANCH  23  27
ATOM     24  C   LIG    1      -26.408  77.731  13.839  0.00  0.00    +0.162 A 
ATOM     25  C   LIG    1      -27.192  76.520  13.776  0.00  0.00    +0.162 A 
ATOM     26  C   LIG    1      -28.075  76.273  12.702  0.00  0.00    +0.054 A 
ATOM     27  C   LIG    1      -28.114  77.104  11.610  0.00  0.00    -0.024 A 
ATOM     28  C   LIG    1      -27.391  78.293  11.657  0.00  0.00    +0.009 A 
ATOM     29  C   LIG    1      -26.598  78.635  12.785  0.00  0.00    +0.050 A 
BRANCH  25  30
ATOM     30  O   LIG    1      -27.277  75.354  14.571  0.00  0.00    -0.491 OA
ATOM     31  C   LIG    1      -26.659  74.389  13.800  0.00  0.00    +0.277 C 
ENDBRANCH  25  30
BRANCH  24  32
ATOM     32  O   LIG    1      -25.508  78.161  14.857  0.00  0.00    -0.484 OA
BRANCH  32  33
ATOM     33  C   LIG    1      -25.397  79.550  15.186  0.00  0.00    +0.264 C 
BRANCH  33  37
ATOM     34  C   LIG    1      -21.731  81.419  15.522  0.00  0.00    +0.120 A 
ATOM     35  C   LIG    1      -22.843  82.042  14.886  0.00  0.00    +0.046 A 
ATOM     36  C   LIG    1      -24.049  81.440  14.827  0.00  0.00    +0.010 A 
ATOM     37  C   LIG    1      -24.115  80.310  15.452  0.00  0.00    -0.010 A 
ATOM     38  C   LIG    1      -23.058  79.556  16.078  0.00  0.00    +0.010 A 
ATOM     39  C   LIG    1      -21.900  80.147  16.120  0.00  0.00    +0.046 A 
BRANCH  34  41
ATOM     40  C   LIG    1      -19.912  82.288  14.323  0.00  0.00    +0.277 C 
ATOM     41  O   LIG    1      -20.457  82.010  15.594  0.00  0.00    -0.495 OA
ENDBRANCH  34  41
ENDBRANCH  33  37
ENDBRANCH  32  33
ENDBRANCH  24  32
ENDBRANCH  23  27
ENDBRANCH   1  23
TORSDOF 10
ENDMDL
MODEL 9
REMARK VINA RESULT:      -5.8     15.057     17.093
REMARK  Name = pdb/CHEMBL3673440.pdb
REMARK                            x       y       z     vdW  Elec       q    Type
REMARK                         _______ _______ _______ _____ _____    ______ ____
ROOT
ATOM      1  N   LIG    1      -41.049  70.151  23.340  0.00  0.00    -0.308 N 
ATOM      2  C   LIG    1      -40.643  71.447  23.621  0.00  0.00    +0.070 A 
ATOM      3  C   LIG    1      -39.467  72.020  24.113  0.00  0.00    +0.028 A 
ATOM      4  C   LIG    1      -39.438  73.424  24.220  0.00  0.00    +0.011 A 
ATOM      5  C   LIG    1      -40.537  74.244  23.887  0.00  0.00    -0.014 A 
ATOM      6  C   LIG    1      -41.699  73.616  23.415  0.00  0.00    +0.038 A 
ATOM      7  C   LIG    1      -41.742  72.225  23.275  0.00  0.00    +0.091 A 
ATOM      8  N   LIG    1      -42.767  71.469  22.801  0.00  0.00    -0.215 NA
ATOM      9  C   LIG    1      -42.316  70.247  22.801  0.00  0.00    +0.194 A 
ENDROOT
BRANCH   5  10
ATOM     10  C   LIG    1      -40.493  75.713  24.033  0.00  0.00    +0.000 A 
ATOM     11  C   LIG    1      -41.574  76.525  23.696  0.00  0.00    +0.120 A 
ATOM     12  N   LIG    1      -41.597  77.875  23.795  0.00  0.00    -0.252 NA
ATOM     13  C   LIG    1      -40.466  78.490  24.220  0.00  0.00    +0.100 A 
ATOM     14  C   LIG    1      -39.329  77.780  24.578  0.00  0.00    +0.032 A 
ATOM     15  C   LIG    1      -39.352  76.389  24.493  0.00  0.00    +0.012 A 
BRANCH  13  16
ATOM     16  P   LIG    1      -40.469  80.260  24.314  0.00  0.00    +0.128 P 
ATOM     17  C   LIG    1      -39.459  80.889  22.965  0.00  0.00    +0.087 C 
ATOM     18  C   LIG    1      -39.538  80.752  25.770  0.00  0.00    +0.087 C 
ATOM     19  O   LIG    1      -41.821  80.932  24.290  0.00  0.00    -0.315 OA
ENDBRANCH  13  16
ENDBRANCH   5  10
BRANCH   9  20
ATOM     20  N   LIG    1      -43.006  69.229  22.263  0.00  0.00    -0.329 N 
ATOM     21  H   LIG    1      -43.076  69.358  21.256  0.00  0.00    +0.145 HD
ATOM     22  H   LIG    1      -42.513  68.343  22.373  0.00  0.00    +0.145 HD
ENDBRANCH   9  20
BRANCH   1  23
ATOM     23  C   LIG    1      -40.256  68.956  23.620  0.00  0.00    +0.160 C 
BRANCH  23  27
ATOM     24  C   LIG    1      -38.010  67.813  20.053  0.00  0.00    +0.162 A 
ATOM     25  C   LIG    1      -39.284  67.230  20.399  0.00  0.00    +0.162 A 
ATOM     26  C   LIG    1      -39.917  67.525  21.627  0.00  0.00    +0.054 A 
ATOM     27  C   LIG    1      -39.416  68.485  22.471  0.00  0.00    -0.024 A 
ATOM     28  C   LIG    1      -38.174  69.042  22.176  0.00  0.00    +0.009 A 
ATOM     29  C   LIG    1      -37.448  68.665  21.015  0.00  0.00    +0.050 A 
BRANCH  25  30
ATOM     30  O   LIG    1      -40.200  66.386  19.731  0.00  0.00    -0.491 OA
ATOM     31  C   LIG    1      -41.160  66.124  20.689  0.00  0.00    +0.277 C 
ENDBRANCH  25  30
BRANCH  24  32
ATOM     32  O   LIG    1      -37.215  67.599  18.891  0.00  0.00    -0.484 OA
BRANCH  32  33
ATOM     33  C   LIG    1      -36.255  66.537  18.855  0.00  0.00    +0.264 C 
BRANCH  33  37
ATOM     34  C   LIG    1      -32.231  67.390  18.491  0.00  0.00    +0.120 A 
ATOM     35  C   LIG    1      -32.780  66.820  19.676  0.00  0.00    +0.046 A 
ATOM     36  C   LIG    1      -34.089  66.500  19.763  0.00  0.00    +0.010 A 
ATOM     37  C   LIG    1      -34.759  66.685  18.673  0.00  0.00    -0.010 A 
ATOM     38  C   LIG    1      -34.335  67.301  17.440  0.00  0.00    +0.010 A 
ATOM     39  C   LIG    1      -33.073  67.610  17.375  0.00  0.00    +0.046 A 
BRANCH  34  41
ATOM     40  C   LIG    1      -30.650  69.119  18.591  0.00  0.00    +0.277 C 
ATOM     41  O   LIG    1      -30.877  67.745  18.367  0.00  0.00    -0.495 OA
ENDBRANCH  34  41
ENDBRANCH  33  37
ENDBRANCH  32  33
ENDBRANCH  24  32
ENDBRANCH  23  27
ENDBRANCH   1  23
TORSDOF 10
ENDMDL
