MODEL 1
REMARK VINA RESULT:      -6.1      0.000      0.000
REMARK  Name = pdb/CHEMBL3675925.pdb
REMARK                            x       y       z     vdW  Elec       q    Type
REMARK                         _______ _______ _______ _____ _____    ______ ____
ROOT
ATOM      1  C   LIG    1      -20.407  76.785  30.610  0.00  0.00    +0.100 A 
ATOM      2  C   LIG    1      -20.148  77.568  31.723  0.00  0.00    +0.170 A 
ATOM      3  N   LIG    1      -20.974  78.133  32.669  0.00  0.00    -0.212 NA
ATOM      4  C   LIG    1      -20.421  78.875  33.606  0.00  0.00    +0.126 A 
ATOM      5  C   LIG    1      -18.921  79.064  33.692  0.00  0.00    +0.063 A 
ATOM      6  C   LIG    1      -18.168  78.480  32.755  0.00  0.00    +0.118 A 
ATOM      7  N   LIG    1      -18.762  77.736  31.753  0.00  0.00    -0.221 N 
ATOM      8  N   LIG    1      -18.142  77.100  30.732  0.00  0.00    -0.173 NA
ATOM      9  C   LIG    1      -19.137  76.533  30.051  0.00  0.00    +0.150 A 
ENDROOT
BRANCH   4  10
ATOM     10  N   LIG    1      -21.213  79.491  34.561  0.00  0.00    -0.308 N 
ATOM     11  C   LIG    1      -22.686  79.539  34.518  0.00  0.00    +0.108 C 
ATOM     12  C   LIG    1      -22.972  80.927  35.121  0.00  0.00    +0.029 C 
ATOM     13  C   LIG    1      -21.919  81.050  36.210  0.00  0.00    +0.021 C 
ATOM     14  C   LIG    1      -20.692  80.414  35.572  0.00  0.00    +0.107 C 
BRANCH  11  15
ATOM     15  C   LIG    1      -23.295  78.395  35.323  0.00  0.00    +0.011 A 
ATOM     16  C   LIG    1      -24.677  78.154  35.295  0.00  0.00    +0.129 A 
ATOM     17  F   LIG    1      -25.478  78.934  34.554  0.00  0.00    -0.205 F 
ATOM     18  C   LIG    1      -25.260  77.114  36.027  0.00  0.00    +0.041 A 
ATOM     19  C   LIG    1      -24.459  76.274  36.798  0.00  0.00    +0.041 A 
ATOM     20  C   LIG    1      -23.090  76.489  36.827  0.00  0.00    +0.124 A 
ATOM     21  F   LIG    1      -22.308  75.689  37.564  0.00  0.00    -0.205 F 
ATOM     22  C   LIG    1      -22.510  77.526  36.103  0.00  0.00    +0.046 A 
ENDBRANCH  11  15
ENDBRANCH   4  10
BRANCH   1  25
ATOM     23  N   LIG    1      -22.459  75.654  31.028  0.00  0.00    -0.310 N 
ATOM     24  H   LIG    1      -22.125  75.661  31.992  0.00  0.00    +0.149 HD
ATOM     25  C   LIG    1      -21.675  76.306  30.104  0.00  0.00    +0.249 C 
ATOM     26  O   LIG    1      -22.011  76.471  28.937  0.00  0.00    -0.270 OA
BRANCH  23  27
ATOM     27  C   LIG    1      -23.788  75.175  30.702  0.00  0.00    +0.128 C 
BRANCH  27  28
ATOM     28  C   LIG    1      -24.820  75.734  31.657  0.00  0.00    +0.203 C 
BRANCH  28  29
ATOM     29  S   LIG    1      -25.220  77.411  31.212  0.00  0.00    +0.028 S 
ATOM     30  O   LIG    1      -26.642  77.633  31.384  0.00  0.00    -0.158 OA
ATOM     31  O   LIG    1      -24.226  78.313  31.728  0.00  0.00    -0.158 OA
BRANCH  29  32
ATOM     32  N   LIG    1      -24.975  77.381  29.552  0.00  0.00    -0.208 NA
ATOM     33  H   LIG    1      -25.855  77.553  29.064  0.00  0.00    +0.144 HD
ATOM     34  H   LIG    1      -24.234  78.037  29.299  0.00  0.00    +0.144 HD
ENDBRANCH  29  32
ENDBRANCH  28  29
ENDBRANCH  27  28
ENDBRANCH  23  27
ENDBRANCH   1  25
TORSDOF 7
ENDMDL
MODEL 2
REMARK VINA RESULT:      -5.8      2.495      3.860
REMARK  Name = pdb/CHEMBL3675925.pdb
REMARK                            x       y       z     vdW  Elec       q    Type
REMARK                         _______ _______ _______ _____ _____    ______ ____
ROOT
ATOM      1  C   LIG    1      -23.733  77.398  30.723  0.00  0.00    +0.100 A 
ATOM      2  C   LIG    1      -22.566  77.587  31.445  0.00  0.00    +0.170 A 
ATOM      3  N   LIG    1      -22.336  77.933  32.758  0.00  0.00    -0.212 NA
ATOM      4  C   LIG    1      -21.086  78.077  33.147  0.00  0.00    +0.126 A 
ATOM      5  C   LIG    1      -19.925  77.816  32.213  0.00  0.00    +0.063 A 
ATOM      6  C   LIG    1      -20.208  77.468  30.954  0.00  0.00    +0.118 A 
ATOM      7  N   LIG    1      -21.524  77.359  30.544  0.00  0.00    -0.221 N 
ATOM      8  N   LIG    1      -21.970  77.034  29.309  0.00  0.00    -0.173 NA
ATOM      9  C   LIG    1      -23.297  77.060  29.426  0.00  0.00    +0.150 A 
ENDROOT
BRANCH   4  10
ATOM     10  N   LIG    1      -20.805  78.455  34.450  0.00  0.00    -0.308 N 
ATOM     11  C   LIG    1      -20.545  79.842  34.878  0.00  0.00    +0.108 C 
ATOM     12  C   LIG    1      -19.491  79.638  35.982  0.00  0.00    +0.029 C 
ATOM     13  C   LIG    1      -19.958  78.365  36.669  0.00  0.00    +0.021 C 
ATOM     14  C   LIG    1      -20.443  77.508  35.507  0.00  0.00    +0.107 C 
BRANCH  11  15
ATOM     15  C   LIG    1      -21.823  80.508  35.380  0.00  0.00    +0.011 A 
ATOM     16  C   LIG    1      -21.794  81.806  35.912  0.00  0.00    +0.129 A 
ATOM     17  F   LIG    1      -20.634  82.475  35.982  0.00  0.00    -0.205 F 
ATOM     18  C   LIG    1      -22.951  82.437  36.383  0.00  0.00    +0.041 A 
ATOM     19  C   LIG    1      -24.177  81.778  36.315  0.00  0.00    +0.041 A 
ATOM     20  C   LIG    1      -24.227  80.500  35.780  0.00  0.00    +0.124 A 
ATOM     21  F   LIG    1      -25.398  79.855  35.708  0.00  0.00    -0.205 F 
ATOM     22  C   LIG    1      -23.075  79.870  35.317  0.00  0.00    +0.046 A 
ENDBRANCH  11  15
ENDBRANCH   4  10
BRANCH   1  25
ATOM     23  N   LIG    1      -25.403  76.818  32.316  0.00  0.00    -0.310 N 
ATOM     24  H   LIG    1      -24.616  76.389  32.804  0.00  0.00    +0.149 HD
ATOM     25  C   LIG    1      -25.108  77.506  31.163  0.00  0.00    +0.249 C 
ATOM     26  O   LIG    1      -25.937  78.161  30.542  0.00  0.00    -0.270 OA
BRANCH  23  27
ATOM     27  C   LIG    1      -26.716  76.879  32.930  0.00  0.00    +0.128 C 
BRANCH  27  28
ATOM     28  C   LIG    1      -27.642  75.836  32.345  0.00  0.00    +0.203 C 
BRANCH  28  29
ATOM     29  S   LIG    1      -29.235  76.556  32.004  0.00  0.00    +0.028 S 
ATOM     30  O   LIG    1      -29.907  75.785  30.977  0.00  0.00    -0.158 OA
ATOM     31  O   LIG    1      -29.879  76.942  33.231  0.00  0.00    -0.158 OA
BRANCH  29  32
ATOM     32  N   LIG    1      -28.796  77.994  31.259  0.00  0.00    -0.208 NA
ATOM     33  H   LIG    1      -29.228  78.785  31.739  0.00  0.00    +0.144 HD
ATOM     34  H   LIG    1      -27.778  78.059  31.203  0.00  0.00    +0.144 HD
ENDBRANCH  29  32
ENDBRANCH  28  29
ENDBRANCH  27  28
ENDBRANCH  23  27
ENDBRANCH   1  25
TORSDOF 7
ENDMDL
MODEL 3
REMARK VINA RESULT:      -5.5     17.040     19.656
REMARK  Name = pdb/CHEMBL3675925.pdb
REMARK                            x       y       z     vdW  Elec       q    Type
REMARK                         _______ _______ _______ _____ _____    ______ ____
ROOT
ATOM      1  C   LIG    1      -37.462  68.612  22.902  0.00  0.00    +0.100 A 
ATOM      2  C   LIG    1      -38.300  69.644  23.292  0.00  0.00    +0.170 A 
ATOM      3  N   LIG    1      -38.174  70.626  24.249  0.00  0.00    -0.212 NA
ATOM      4  C   LIG    1      -39.181  71.458  24.415  0.00  0.00    +0.126 A 
ATOM      5  C   LIG    1      -40.422  71.390  23.550  0.00  0.00    +0.063 A 
ATOM      6  C   LIG    1      -40.482  70.426  22.627  0.00  0.00    +0.118 A 
ATOM      7  N   LIG    1      -39.436  69.532  22.488  0.00  0.00    -0.221 N 
ATOM      8  N   LIG    1      -39.354  68.500  21.618  0.00  0.00    -0.173 NA
ATOM      9  C   LIG    1      -38.166  67.954  21.874  0.00  0.00    +0.150 A 
ENDROOT
BRANCH   4  10
ATOM     10  N   LIG    1      -39.115  72.443  25.387  0.00  0.00    -0.308 N 
ATOM     11  C   LIG    1      -38.186  73.586  25.354  0.00  0.00    +0.108 C 
ATOM     12  C   LIG    1      -37.863  73.772  26.849  0.00  0.00    +0.029 C 
ATOM     13  C   LIG    1      -39.193  73.481  27.524  0.00  0.00    +0.021 C 
ATOM     14  C   LIG    1      -39.746  72.323  26.704  0.00  0.00    +0.107 C 
BRANCH  11  15
ATOM     15  C   LIG    1      -38.843  74.809  24.723  0.00  0.00    +0.011 A 
ATOM     16  C   LIG    1      -38.156  76.028  24.634  0.00  0.00    +0.129 A 
ATOM     17  F   LIG    1      -36.904  76.127  25.105  0.00  0.00    -0.205 F 
ATOM     18  C   LIG    1      -38.739  77.165  24.063  0.00  0.00    +0.041 A 
ATOM     19  C   LIG    1      -40.033  77.098  23.550  0.00  0.00    +0.041 A 
ATOM     20  C   LIG    1      -40.723  75.898  23.618  0.00  0.00    +0.124 A 
ATOM     21  F   LIG    1      -41.967  75.819  23.129  0.00  0.00    -0.205 F 
ATOM     22  C   LIG    1      -40.145  74.769  24.190  0.00  0.00    +0.046 A 
ENDBRANCH  11  15
ENDBRANCH   4  10
BRANCH   1  25
ATOM     23  N   LIG    1      -36.082  68.073  24.764  0.00  0.00    -0.310 N 
ATOM     24  H   LIG    1      -36.967  68.096  25.272  0.00  0.00    +0.149 HD
ATOM     25  C   LIG    1      -36.151  68.259  23.404  0.00  0.00    +0.249 C 
ATOM     26  O   LIG    1      -35.182  68.145  22.661  0.00  0.00    -0.270 OA
BRANCH  23  27
ATOM     27  C   LIG    1      -34.859  67.647  25.418  0.00  0.00    +0.128 C 
BRANCH  27  28
ATOM     28  C   LIG    1      -34.672  68.355  26.741  0.00  0.00    +0.203 C 
BRANCH  28  29
ATOM     29  S   LIG    1      -34.569  70.114  26.485  0.00  0.00    +0.028 S 
ATOM     30  O   LIG    1      -34.002  70.744  27.660  0.00  0.00    -0.158 OA
ATOM     31  O   LIG    1      -34.104  70.396  25.153  0.00  0.00    -0.158 OA
BRANCH  29  32
ATOM     32  N   LIG    1      -36.190  70.545  26.491  0.00  0.00    -0.208 NA
ATOM     33  H   LIG    1      -36.335  71.379  25.920  0.00  0.00    +0.144 HD
ATOM     34  H   LIG    1      -36.762  69.750  26.202  0.00  0.00    +0.144 HD
ENDBRANCH  29  32
ENDBRANCH  28  29
ENDBRANCH  27  28
ENDBRANCH  23  27
ENDBRANCH   1  25
TORSDOF 7
ENDMDL
MODEL 4
REMARK VINA RESULT:      -5.2      1.715      2.088
REMARK  Name = pdb/CHEMBL3675925.pdb
REMARK                            x       y       z     vdW  Elec       q    Type
REMARK                         _______ _______ _______ _____ _____    ______ ____
ROOT
ATOM      1  C   LIG    1      -21.092  77.360  30.495  0.00  0.00    +0.100 A 
ATOM      2  C   LIG    1      -20.387  77.792  31.607  0.00  0.00    +0.170 A 
ATOM      3  N   LIG    1      -20.785  78.393  32.780  0.00  0.00    -0.212 NA
ATOM      4  C   LIG    1      -19.854  78.728  33.648  0.00  0.00    +0.126 A 
ATOM      5  C   LIG    1      -18.392  78.416  33.410  0.00  0.00    +0.063 A 
ATOM      6  C   LIG    1      -18.065  77.817  32.261  0.00  0.00    +0.118 A 
ATOM      7  N   LIG    1      -19.046  77.506  31.338  0.00  0.00    -0.221 N 
ATOM      8  N   LIG    1      -18.875  76.918  30.132  0.00  0.00    -0.173 NA
ATOM      9  C   LIG    1      -20.108  76.835  29.633  0.00  0.00    +0.150 A 
ENDROOT
BRANCH   4  10
ATOM     10  N   LIG    1      -20.203  79.365  34.828  0.00  0.00    -0.308 N 
ATOM     11  C   LIG    1      -21.285  80.358  34.951  0.00  0.00    +0.108 C 
ATOM     12  C   LIG    1      -20.709  81.320  36.007  0.00  0.00    +0.029 C 
ATOM     13  C   LIG    1      -19.988  80.385  36.964  0.00  0.00    +0.021 C 
ATOM     14  C   LIG    1      -19.367  79.354  36.031  0.00  0.00    +0.107 C 
BRANCH  11  15
ATOM     15  C   LIG    1      -22.590  79.697  35.386  0.00  0.00    +0.011 A 
ATOM     16  C   LIG    1      -23.729  80.468  35.658  0.00  0.00    +0.129 A 
ATOM     17  F   LIG    1      -23.680  81.803  35.536  0.00  0.00    -0.205 F 
ATOM     18  C   LIG    1      -24.936  79.886  36.062  0.00  0.00    +0.041 A 
ATOM     19  C   LIG    1      -25.030  78.501  36.187  0.00  0.00    +0.041 A 
ATOM     20  C   LIG    1      -23.918  77.722  35.909  0.00  0.00    +0.124 A 
ATOM     21  F   LIG    1      -23.994  76.390  36.026  0.00  0.00    -0.205 F 
ATOM     22  C   LIG    1      -22.716  78.301  35.513  0.00  0.00    +0.046 A 
ENDBRANCH  11  15
ENDBRANCH   4  10
BRANCH   1  25
ATOM     23  N   LIG    1      -23.290  77.721  31.332  0.00  0.00    -0.310 N 
ATOM     24  H   LIG    1      -22.791  77.985  32.182  0.00  0.00    +0.149 HD
ATOM     25  C   LIG    1      -22.516  77.411  30.239  0.00  0.00    +0.249 C 
ATOM     26  O   LIG    1      -22.982  77.186  29.128  0.00  0.00    -0.270 OA
BRANCH  23  27
ATOM     27  C   LIG    1      -24.728  77.881  31.231  0.00  0.00    +0.128 C 
BRANCH  27  28
ATOM     28  C   LIG    1      -25.424  77.363  32.469  0.00  0.00    +0.203 C 
BRANCH  28  29
ATOM     29  S   LIG    1      -25.059  75.636  32.699  0.00  0.00    +0.028 S 
ATOM     30  O   LIG    1      -23.661  75.476  33.042  0.00  0.00    -0.158 OA
ATOM     31  O   LIG    1      -26.117  74.998  33.437  0.00  0.00    -0.158 OA
BRANCH  29  32
ATOM     32  N   LIG    1      -25.198  75.056  31.130  0.00  0.00    -0.208 NA
ATOM     33  H   LIG    1      -25.581  74.110  31.138  0.00  0.00    +0.144 HD
ATOM     34  H   LIG    1      -25.742  75.711  30.566  0.00  0.00    +0.144 HD
ENDBRANCH  29  32
ENDBRANCH  28  29
ENDBRANCH  27  28
ENDBRANCH  23  27
ENDBRANCH   1  25
TORSDOF 7
ENDMDL
MODEL 5
REMARK VINA RESULT:      -5.2     16.702     18.457
REMARK  Name = pdb/CHEMBL3675925.pdb
REMARK                            x       y       z     vdW  Elec       q    Type
REMARK                         _______ _______ _______ _____ _____    ______ ____
ROOT
ATOM      1  C   LIG    1      -22.941  80.482  15.163  0.00  0.00    +0.100 A 
ATOM      2  C   LIG    1      -21.876  79.608  15.309  0.00  0.00    +0.170 A 
ATOM      3  N   LIG    1      -21.655  78.331  14.840  0.00  0.00    -0.212 NA
ATOM      4  C   LIG    1      -20.536  77.732  15.189  0.00  0.00    +0.126 A 
ATOM      5  C   LIG    1      -19.486  78.428  16.027  0.00  0.00    +0.063 A 
ATOM      6  C   LIG    1      -19.747  79.672  16.441  0.00  0.00    +0.118 A 
ATOM      7  N   LIG    1      -20.943  80.278  16.103  0.00  0.00    -0.221 N 
ATOM      8  N   LIG    1      -21.359  81.516  16.455  0.00  0.00    -0.173 NA
ATOM      9  C   LIG    1      -22.558  81.630  15.886  0.00  0.00    +0.150 A 
ENDROOT
BRANCH   4  10
ATOM     10  N   LIG    1      -20.284  76.436  14.769  0.00  0.00    -0.308 N 
ATOM     11  C   LIG    1      -19.396  75.491  15.469  0.00  0.00    +0.108 C 
ATOM     12  C   LIG    1      -18.775  74.713  14.293  0.00  0.00    +0.029 C 
ATOM     13  C   LIG    1      -19.933  74.587  13.318  0.00  0.00    +0.021 C 
ATOM     14  C   LIG    1      -20.628  75.936  13.436  0.00  0.00    +0.107 C 
BRANCH  11  15
ATOM     15  C   LIG    1      -20.185  74.604  16.427  0.00  0.00    +0.011 A 
ATOM     16  C   LIG    1      -19.529  73.826  17.391  0.00  0.00    +0.129 A 
ATOM     17  F   LIG    1      -18.191  73.857  17.480  0.00  0.00    -0.205 F 
ATOM     18  C   LIG    1      -20.230  73.002  18.279  0.00  0.00    +0.041 A 
ATOM     19  C   LIG    1      -21.622  72.953  18.227  0.00  0.00    +0.041 A 
ATOM     20  C   LIG    1      -22.289  73.725  17.289  0.00  0.00    +0.124 A 
ATOM     21  F   LIG    1      -23.626  73.688  17.228  0.00  0.00    -0.205 F 
ATOM     22  C   LIG    1      -21.591  74.541  16.403  0.00  0.00    +0.046 A 
ENDBRANCH  11  15
ENDBRANCH   4  10
BRANCH   1  25
ATOM     23  N   LIG    1      -24.133  79.355  13.439  0.00  0.00    -0.310 N 
ATOM     24  H   LIG    1      -23.277  78.803  13.375  0.00  0.00    +0.149 HD
ATOM     25  C   LIG    1      -24.179  80.301  14.436  0.00  0.00    +0.249 C 
ATOM     26  O   LIG    1      -25.184  80.952  14.697  0.00  0.00    -0.270 OA
BRANCH  23  27
ATOM     27  C   LIG    1      -25.307  79.001  12.665  0.00  0.00    +0.128 C 
BRANCH  27  28
ATOM     28  C   LIG    1      -25.446  77.501  12.535  0.00  0.00    +0.203 C 
BRANCH  28  29
ATOM     29  S   LIG    1      -25.747  76.774  14.132  0.00  0.00    +0.028 S 
ATOM     30  O   LIG    1      -26.381  77.748  14.998  0.00  0.00    -0.158 OA
ATOM     31  O   LIG    1      -26.241  75.431  13.982  0.00  0.00    -0.158 OA
BRANCH  29  32
ATOM     32  N   LIG    1      -24.184  76.611  14.722  0.00  0.00    -0.208 NA
ATOM     33  H   LIG    1      -23.662  77.476  14.579  0.00  0.00    +0.144 HD
ATOM     34  H   LIG    1      -24.212  76.308  15.698  0.00  0.00    +0.144 HD
ENDBRANCH  29  32
ENDBRANCH  28  29
ENDBRANCH  27  28
ENDBRANCH  23  27
ENDBRANCH   1  25
TORSDOF 7
ENDMDL
MODEL 6
REMARK VINA RESULT:      -5.2     13.211     16.921
REMARK  Name = pdb/CHEMBL3675925.pdb
REMARK                            x       y       z     vdW  Elec       q    Type
REMARK                         _______ _______ _______ _____ _____    ______ ____
ROOT
ATOM      1  C   LIG    1      -34.027  74.266  29.384  0.00  0.00    +0.100 A 
ATOM      2  C   LIG    1      -35.284  74.203  28.805  0.00  0.00    +0.170 A 
ATOM      3  N   LIG    1      -35.905  74.982  27.853  0.00  0.00    -0.212 NA
ATOM      4  C   LIG    1      -37.147  74.687  27.530  0.00  0.00    +0.126 A 
ATOM      5  C   LIG    1      -37.866  73.498  28.129  0.00  0.00    +0.063 A 
ATOM      6  C   LIG    1      -37.209  72.769  29.036  0.00  0.00    +0.118 A 
ATOM      7  N   LIG    1      -35.920  73.111  29.399  0.00  0.00    -0.221 N 
ATOM      8  N   LIG    1      -35.134  72.487  30.306  0.00  0.00    -0.173 NA
ATOM      9  C   LIG    1      -34.001  73.187  30.290  0.00  0.00    +0.150 A 
ENDROOT
BRANCH   4  10
ATOM     10  N   LIG    1      -37.824  75.461  26.601  0.00  0.00    -0.308 N 
ATOM     11  C   LIG    1      -37.718  75.294  25.141  0.00  0.00    +0.108 C 
ATOM     12  C   LIG    1      -37.829  76.750  24.649  0.00  0.00    +0.029 C 
ATOM     13  C   LIG    1      -38.853  77.352  25.596  0.00  0.00    +0.021 C 
ATOM     14  C   LIG    1      -38.497  76.719  26.934  0.00  0.00    +0.107 C 
BRANCH  11  15
ATOM     15  C   LIG    1      -38.829  74.393  24.610  0.00  0.00    +0.011 A 
ATOM     16  C   LIG    1      -38.677  72.999  24.596  0.00  0.00    +0.129 A 
ATOM     17  F   LIG    1      -37.546  72.444  25.055  0.00  0.00    -0.205 F 
ATOM     18  C   LIG    1      -39.679  72.151  24.111  0.00  0.00    +0.041 A 
ATOM     19  C   LIG    1      -40.874  72.690  23.638  0.00  0.00    +0.041 A 
ATOM     20  C   LIG    1      -41.047  74.065  23.656  0.00  0.00    +0.124 A 
ATOM     21  F   LIG    1      -42.191  74.597  23.205  0.00  0.00    -0.205 F 
ATOM     22  C   LIG    1      -40.048  74.909  24.134  0.00  0.00    +0.046 A 
ENDBRANCH  11  15
ENDBRANCH   4  10
BRANCH   1  25
ATOM     23  N   LIG    1      -33.125  76.005  28.033  0.00  0.00    -0.310 N 
ATOM     24  H   LIG    1      -34.026  75.938  27.558  0.00  0.00    +0.149 HD
ATOM     25  C   LIG    1      -32.953  75.205  29.138  0.00  0.00    +0.249 C 
ATOM     26  O   LIG    1      -31.968  75.266  29.865  0.00  0.00    -0.270 OA
BRANCH  23  27
ATOM     27  C   LIG    1      -32.176  77.046  27.687  0.00  0.00    +0.128 C 
BRANCH  27  28
ATOM     28  C   LIG    1      -32.810  78.089  26.795  0.00  0.00    +0.203 C 
BRANCH  28  29
ATOM     29  S   LIG    1      -33.987  79.053  27.720  0.00  0.00    +0.028 S 
ATOM     30  O   LIG    1      -33.726  78.908  29.138  0.00  0.00    -0.158 OA
ATOM     31  O   LIG    1      -34.183  80.333  27.095  0.00  0.00    -0.158 OA
BRANCH  29  32
ATOM     32  N   LIG    1      -35.405  78.199  27.443  0.00  0.00    -0.208 NA
ATOM     33  H   LIG    1      -36.112  78.814  27.037  0.00  0.00    +0.144 HD
ATOM     34  H   LIG    1      -35.208  77.374  26.874  0.00  0.00    +0.144 HD
ENDBRANCH  29  32
ENDBRANCH  28  29
ENDBRANCH  27  28
ENDBRANCH  23  27
ENDBRANCH   1  25
TORSDOF 7
ENDMDL
MODEL 7
REMARK VINA RESULT:      -5.1     18.855     21.393
REMARK  Name = pdb/CHEMBL3675925.pdb
REMARK                            x       y       z     vdW  Elec       q    Type
REMARK                         _______ _______ _______ _____ _____    ______ ____
ROOT
ATOM      1  C   LIG    1      -24.917  80.716  13.406  0.00  0.00    +0.100 A 
ATOM      2  C   LIG    1      -23.820  81.386  13.923  0.00  0.00    +0.170 A 
ATOM      3  N   LIG    1      -22.989  82.348  13.393  0.00  0.00    -0.212 NA
ATOM      4  C   LIG    1      -21.985  82.771  14.133  0.00  0.00    +0.126 A 
ATOM      5  C   LIG    1      -21.770  82.272  15.546  0.00  0.00    +0.063 A 
ATOM      6  C   LIG    1      -22.617  81.349  16.013  0.00  0.00    +0.118 A 
ATOM      7  N   LIG    1      -23.643  80.882  15.213  0.00  0.00    -0.221 N 
ATOM      8  N   LIG    1      -24.566  79.946  15.533  0.00  0.00    -0.173 NA
ATOM      9  C   LIG    1      -25.325  79.853  14.442  0.00  0.00    +0.150 A 
ENDROOT
BRANCH   4  10
ATOM     10  N   LIG    1      -21.104  83.715  13.632  0.00  0.00    -0.308 N 
ATOM     11  C   LIG    1      -21.473  84.781  12.683  0.00  0.00    +0.108 C 
ATOM     12  C   LIG    1      -20.200  84.891  11.823  0.00  0.00    +0.029 C 
ATOM     13  C   LIG    1      -19.086  84.685  12.835  0.00  0.00    +0.021 C 
ATOM     14  C   LIG    1      -19.648  83.603  13.747  0.00  0.00    +0.107 C 
BRANCH  11  15
ATOM     15  C   LIG    1      -21.818  86.073  13.418  0.00  0.00    +0.011 A 
ATOM     16  C   LIG    1      -22.399  87.153  12.737  0.00  0.00    +0.129 A 
ATOM     17  F   LIG    1      -22.658  87.055  11.425  0.00  0.00    -0.205 F 
ATOM     18  C   LIG    1      -22.720  88.349  13.387  0.00  0.00    +0.041 A 
ATOM     19  C   LIG    1      -22.478  88.484  14.753  0.00  0.00    +0.041 A 
ATOM     20  C   LIG    1      -21.917  87.422  15.445  0.00  0.00    +0.124 A 
ATOM     21  F   LIG    1      -21.678  87.537  16.758  0.00  0.00    -0.205 F 
ATOM     22  C   LIG    1      -21.592  86.234  14.797  0.00  0.00    +0.046 A 
ENDBRANCH  11  15
ENDBRANCH   4  10
BRANCH   1  25
ATOM     23  N   LIG    1      -25.864  82.134  11.746  0.00  0.00    -0.310 N 
ATOM     24  H   LIG    1      -25.547  82.875  12.372  0.00  0.00    +0.149 HD
ATOM     25  C   LIG    1      -25.539  80.848  12.105  0.00  0.00    +0.249 C 
ATOM     26  O   LIG    1      -25.758  79.876  11.391  0.00  0.00    -0.270 OA
BRANCH  23  27
ATOM     27  C   LIG    1      -26.429  82.447  10.447  0.00  0.00    +0.128 C 
BRANCH  27  28
ATOM     28  C   LIG    1      -25.973  83.807   9.966  0.00  0.00    +0.203 C 
BRANCH  28  29
ATOM     29  S   LIG    1      -26.324  85.041  11.200  0.00  0.00    +0.028 S 
ATOM     30  O   LIG    1      -26.170  86.362  10.624  0.00  0.00    -0.158 OA
ATOM     31  O   LIG    1      -27.478  84.661  11.970  0.00  0.00    -0.158 OA
BRANCH  29  32
ATOM     32  N   LIG    1      -25.017  84.855  12.236  0.00  0.00    -0.208 NA
ATOM     33  H   LIG    1      -25.288  84.300  13.048  0.00  0.00    +0.144 HD
ATOM     34  H   LIG    1      -24.222  84.468  11.725  0.00  0.00    +0.144 HD
ENDBRANCH  29  32
ENDBRANCH  28  29
ENDBRANCH  27  28
ENDBRANCH  23  27
ENDBRANCH   1  25
TORSDOF 7
ENDMDL
MODEL 8
REMARK VINA RESULT:      -5.1     18.485     20.974
REMARK  Name = pdb/CHEMBL3675925.pdb
REMARK                            x       y       z     vdW  Elec       q    Type
REMARK                         _______ _______ _______ _____ _____    ______ ____
ROOT
ATOM      1  C   LIG    1      -18.269  85.161  13.015  0.00  0.00    +0.100 A 
ATOM      2  C   LIG    1      -18.719  83.887  13.324  0.00  0.00    +0.170 A 
ATOM      3  N   LIG    1      -19.774  83.438  14.086  0.00  0.00    -0.212 NA
ATOM      4  C   LIG    1      -19.923  82.137  14.228  0.00  0.00    +0.126 A 
ATOM      5  C   LIG    1      -19.009  81.150  13.534  0.00  0.00    +0.063 A 
ATOM      6  C   LIG    1      -18.011  81.643  12.795  0.00  0.00    +0.118 A 
ATOM      7  N   LIG    1      -17.839  83.011  12.686  0.00  0.00    -0.221 N 
ATOM      8  N   LIG    1      -16.875  83.659  11.993  0.00  0.00    -0.173 NA
ATOM      9  C   LIG    1      -17.141  84.949  12.197  0.00  0.00    +0.150 A 
ENDROOT
BRANCH   4  10
ATOM     10  N   LIG    1      -20.951  81.638  15.011  0.00  0.00    -0.308 N 
ATOM     11  C   LIG    1      -22.166  82.390  15.372  0.00  0.00    +0.108 C 
ATOM     12  C   LIG    1      -22.442  81.876  16.797  0.00  0.00    +0.029 C 
ATOM     13  C   LIG    1      -22.070  80.406  16.707  0.00  0.00    +0.021 C 
ATOM     14  C   LIG    1      -20.835  80.419  15.816  0.00  0.00    +0.107 C 
BRANCH  11  15
ATOM     15  C   LIG    1      -23.301  82.099  14.395  0.00  0.00    +0.011 A 
ATOM     16  C   LIG    1      -23.474  82.879  13.242  0.00  0.00    +0.129 A 
ATOM     17  F   LIG    1      -22.634  83.892  12.987  0.00  0.00    -0.205 F 
ATOM     18  C   LIG    1      -24.509  82.634  12.333  0.00  0.00    +0.041 A 
ATOM     19  C   LIG    1      -25.394  81.581  12.557  0.00  0.00    +0.041 A 
ATOM     20  C   LIG    1      -25.231  80.792  13.685  0.00  0.00    +0.124 A 
ATOM     21  F   LIG    1      -26.074  79.777  13.913  0.00  0.00    -0.205 F 
ATOM     22  C   LIG    1      -24.204  81.038  14.591  0.00  0.00    +0.046 A 
ENDBRANCH  11  15
ENDBRANCH   4  10
BRANCH   1  25
ATOM     23  N   LIG    1      -19.910  86.378  14.236  0.00  0.00    -0.310 N 
ATOM     24  H   LIG    1      -20.174  85.450  14.569  0.00  0.00    +0.149 HD
ATOM     25  C   LIG    1      -18.810  86.443  13.414  0.00  0.00    +0.249 C 
ATOM     26  O   LIG    1      -18.317  87.500  13.035  0.00  0.00    -0.270 OA
BRANCH  23  27
ATOM     27  C   LIG    1      -20.528  87.570  14.783  0.00  0.00    +0.128 C 
BRANCH  27  28
ATOM     28  C   LIG    1      -21.985  87.662  14.384  0.00  0.00    +0.203 C 
BRANCH  28  29
ATOM     29  S   LIG    1      -22.123  88.218  12.699  0.00  0.00    +0.028 S 
ATOM     30  O   LIG    1      -21.817  87.125  11.799  0.00  0.00    -0.158 OA
ATOM     31  O   LIG    1      -23.288  89.048  12.543  0.00  0.00    -0.158 OA
BRANCH  29  32
ATOM     32  N   LIG    1      -20.815  89.263  12.586  0.00  0.00    -0.208 NA
ATOM     33  H   LIG    1      -21.123  90.228  12.710  0.00  0.00    +0.144 HD
ATOM     34  H   LIG    1      -20.087  88.981  13.245  0.00  0.00    +0.144 HD
ENDBRANCH  29  32
ENDBRANCH  28  29
ENDBRANCH  27  28
ENDBRANCH  23  27
ENDBRANCH   1  25
TORSDOF 7
ENDMDL
MODEL 9
REMARK VINA RESULT:      -5.1     13.634     16.563
REMARK  Name = pdb/CHEMBL3675925.pdb
REMARK                            x       y       z     vdW  Elec       q    Type
REMARK                         _______ _______ _______ _____ _____    ______ ____
ROOT
ATOM      1  C   LIG    1      -38.790  72.949  24.814  0.00  0.00    +0.100 A 
ATOM      2  C   LIG    1      -38.235  74.035  25.473  0.00  0.00    +0.170 A 
ATOM      3  N   LIG    1      -37.198  74.140  26.373  0.00  0.00    -0.212 NA
ATOM      4  C   LIG    1      -36.926  75.331  26.864  0.00  0.00    +0.126 A 
ATOM      5  C   LIG    1      -37.679  76.567  26.420  0.00  0.00    +0.063 A 
ATOM      6  C   LIG    1      -38.666  76.407  25.533  0.00  0.00    +0.118 A 
ATOM      7  N   LIG    1      -38.970  75.146  25.054  0.00  0.00    -0.221 N 
ATOM      8  N   LIG    1      -39.942  74.821  24.172  0.00  0.00    -0.173 NA
ATOM      9  C   LIG    1      -39.827  73.501  24.034  0.00  0.00    +0.150 A 
ENDROOT
BRANCH   4  10
ATOM     10  N   LIG    1      -35.913  75.482  27.796  0.00  0.00    -0.308 N 
ATOM     11  C   LIG    1      -34.514  75.805  27.463  0.00  0.00    +0.108 C 
ATOM     12  C   LIG    1      -33.744  75.008  28.533  0.00  0.00    +0.029 C 
ATOM     13  C   LIG    1      -34.622  75.154  29.765  0.00  0.00    +0.021 C 
ATOM     14  C   LIG    1      -36.031  75.059  29.194  0.00  0.00    +0.107 C 
BRANCH  11  15
ATOM     15  C   LIG    1      -34.266  77.308  27.537  0.00  0.00    +0.011 A 
ATOM     16  C   LIG    1      -33.079  77.865  27.040  0.00  0.00    +0.129 A 
ATOM     17  F   LIG    1      -32.146  77.074  26.490  0.00  0.00    -0.205 F 
ATOM     18  C   LIG    1      -32.826  79.240  27.100  0.00  0.00    +0.041 A 
ATOM     19  C   LIG    1      -33.777  80.097  27.651  0.00  0.00    +0.041 A 
ATOM     20  C   LIG    1      -34.962  79.566  28.136  0.00  0.00    +0.124 A 
ATOM     21  F   LIG    1      -35.885  80.377  28.668  0.00  0.00    -0.205 F 
ATOM     22  C   LIG    1      -35.211  78.197  28.081  0.00  0.00    +0.046 A 
ENDBRANCH  11  15
ENDBRANCH   4  10
BRANCH   1  25
ATOM     23  N   LIG    1      -37.931  71.138  26.096  0.00  0.00    -0.310 N 
ATOM     24  H   LIG    1      -37.976  71.815  26.858  0.00  0.00    +0.149 HD
ATOM     25  C   LIG    1      -38.417  71.552  24.879  0.00  0.00    +0.249 C 
ATOM     26  O   LIG    1      -38.526  70.807  23.911  0.00  0.00    -0.270 OA
BRANCH  23  27
ATOM     27  C   LIG    1      -37.578  69.754  26.349  0.00  0.00    +0.128 C 
BRANCH  27  28
ATOM     28  C   LIG    1      -36.405  69.654  27.299  0.00  0.00    +0.203 C 
BRANCH  28  29
ATOM     29  S   LIG    1      -34.954  70.372  26.558  0.00  0.00    +0.028 S 
ATOM     30  O   LIG    1      -33.770  69.892  27.242  0.00  0.00    -0.158 OA
ATOM     31  O   LIG    1      -35.076  70.371  25.124  0.00  0.00    -0.158 OA
BRANCH  29  32
ATOM     32  N   LIG    1      -35.109  71.979  27.016  0.00  0.00    -0.208 NA
ATOM     33  H   LIG    1      -34.201  72.354  27.293  0.00  0.00    +0.144 HD
ATOM     34  H   LIG    1      -35.559  72.511  26.270  0.00  0.00    +0.144 HD
ENDBRANCH  29  32
ENDBRANCH  28  29
ENDBRANCH  27  28
ENDBRANCH  23  27
ENDBRANCH   1  25
TORSDOF 7
ENDMDL
