MODEL 1
REMARK VINA RESULT:      -5.7      0.000      0.000
REMARK  Name = pdb/CHEMBL3676030.pdb
REMARK                            x       y       z     vdW  Elec       q    Type
REMARK                         _______ _______ _______ _____ _____    ______ ____
ROOT
ATOM      1  C   LIG    1      -20.545  83.743  12.304  0.00  0.00    +0.126 A 
ATOM      2  N   LIG    1      -20.423  82.735  13.144  0.00  0.00    -0.212 NA
ATOM      3  C   LIG    1      -19.162  82.373  13.568  0.00  0.00    +0.170 A 
ATOM      4  C   LIG    1      -18.683  81.444  14.479  0.00  0.00    +0.100 A 
ATOM      5  C   LIG    1      -17.283  81.488  14.331  0.00  0.00    +0.150 A 
ATOM      6  N   LIG    1      -16.875  82.394  13.448  0.00  0.00    -0.173 NA
ATOM      7  N   LIG    1      -18.020  82.983  13.035  0.00  0.00    -0.221 N 
ATOM      8  C   LIG    1      -18.130  84.082  12.210  0.00  0.00    +0.118 A 
ATOM      9  C   LIG    1      -19.335  84.544  11.870  0.00  0.00    +0.063 A 
ENDROOT
BRANCH   1  11
ATOM     10  C   LIG    1      -22.978  84.504  12.538  0.00  0.00    +0.110 C 
ATOM     11  N   LIG    1      -21.794  84.063  11.773  0.00  0.00    -0.308 N 
ATOM     12  C   LIG    1      -22.070  84.084  10.337  0.00  0.00    +0.107 C 
ATOM     13  C   LIG    1      -23.592  84.092  10.240  0.00  0.00    +0.021 C 
ATOM     14  C   LIG    1      -24.033  84.851  11.476  0.00  0.00    +0.029 C 
BRANCH  10  16
ATOM     15  C   LIG    1      -22.519  85.649  14.767  0.00  0.00    +0.220 A 
ATOM     16  C   LIG    1      -22.723  85.732  13.385  0.00  0.00    +0.037 A 
ATOM     17  C   LIG    1      -22.695  87.011  12.803  0.00  0.00    +0.050 A 
ATOM     18  C   LIG    1      -22.446  88.117  13.591  0.00  0.00    +0.142 A 
ATOM     19  F   LIG    1      -22.321  89.327  13.034  0.00  0.00    -0.204 F 
ATOM     20  C   LIG    1      -22.308  87.940  14.953  0.00  0.00    +0.153 A 
ATOM     21  N   LIG    1      -22.334  86.730  15.561  0.00  0.00    -0.218 NA
BRANCH  15  23
ATOM     22  C   LIG    1      -22.794  84.373  16.727  0.00  0.00    +0.279 C 
ATOM     23  O   LIG    1      -22.479  84.391  15.335  0.00  0.00    -0.479 OA
ENDBRANCH  15  23
ENDBRANCH  10  16
ENDBRANCH   1  11
BRANCH   4  24
ATOM     24  C   LIG    1      -19.450  80.626  15.405  0.00  0.00    +0.249 C 
ATOM     25  N   LIG    1      -20.745  80.367  14.965  0.00  0.00    -0.308 N 
ATOM     26  H   LIG    1      -21.116  80.967  14.243  0.00  0.00    +0.149 HD
ATOM     27  O   LIG    1      -19.007  80.177  16.436  0.00  0.00    -0.270 OA
BRANCH  25  28
ATOM     28  C   LIG    1      -21.681  79.600  15.776  0.00  0.00    +0.076 C 
ATOM     29  C   LIG    1      -22.322  78.470  14.968  0.00  0.00    +0.037 C 
ATOM     30  C   LIG    1      -23.338  78.989  13.953  0.00  0.00    +0.086 C 
ATOM     31  N   LIG    1      -24.357  79.866  14.521  0.00  0.00    -0.300 NA
ATOM     32  C   LIG    1      -23.819  80.924  15.374  0.00  0.00    +0.086 C 
ATOM     33  C   LIG    1      -22.758  80.497  16.391  0.00  0.00    +0.037 C 
BRANCH  31  34
ATOM     34  C   LIG    1      -25.565  79.203  15.018  0.00  0.00    +0.112 C 
BRANCH  34  35
ATOM     35  C   LIG    1      -26.203  78.101  14.162  0.00  0.00    +0.171 C 
BRANCH  35  36
ATOM     36  O   LIG    1      -27.206  77.407  14.901  0.00  0.00    -0.394 OA
ATOM     37  H   LIG    1      -27.646  76.796  14.286  0.00  0.00    +0.209 HD
ENDBRANCH  35  36
ENDBRANCH  34  35
ENDBRANCH  31  34
ENDBRANCH  25  28
ENDBRANCH   4  24
TORSDOF 8
ENDMDL
MODEL 2
REMARK VINA RESULT:      -5.5      2.381      5.052
REMARK  Name = pdb/CHEMBL3676030.pdb
REMARK                            x       y       z     vdW  Elec       q    Type
REMARK                         _______ _______ _______ _____ _____    ______ ____
ROOT
ATOM      1  C   LIG    1      -21.623  84.316  11.656  0.00  0.00    +0.126 A 
ATOM      2  N   LIG    1      -22.377  83.588  12.455  0.00  0.00    -0.212 NA
ATOM      3  C   LIG    1      -23.642  83.236  12.036  0.00  0.00    +0.170 A 
ATOM      4  C   LIG    1      -24.644  82.438  12.567  0.00  0.00    +0.100 A 
ATOM      5  C   LIG    1      -25.738  82.614  11.698  0.00  0.00    +0.150 A 
ATOM      6  N   LIG    1      -25.470  83.407  10.666  0.00  0.00    -0.173 NA
ATOM      7  N   LIG    1      -24.167  83.729  10.836  0.00  0.00    -0.221 N 
ATOM      8  C   LIG    1      -23.371  84.432   9.957  0.00  0.00    +0.118 A 
ATOM      9  C   LIG    1      -22.100  84.693  10.268  0.00  0.00    +0.063 A 
ENDROOT
BRANCH   1  11
ATOM     10  C   LIG    1      -19.991  86.196  12.251  0.00  0.00    +0.110 C 
ATOM     11  N   LIG    1      -20.384  84.781  12.095  0.00  0.00    -0.308 N 
ATOM     12  C   LIG    1      -19.315  83.894  12.553  0.00  0.00    +0.107 C 
ATOM     13  C   LIG    1      -18.067  84.770  12.556  0.00  0.00    +0.021 C 
ATOM     14  C   LIG    1      -18.592  86.154  12.886  0.00  0.00    +0.029 C 
BRANCH  10  16
ATOM     15  C   LIG    1      -21.824  87.916  12.666  0.00  0.00    +0.220 A 
ATOM     16  C   LIG    1      -20.912  86.978  13.163  0.00  0.00    +0.037 A 
ATOM     17  C   LIG    1      -20.869  86.793  14.555  0.00  0.00    +0.050 A 
ATOM     18  C   LIG    1      -21.728  87.505  15.368  0.00  0.00    +0.142 A 
ATOM     19  F   LIG    1      -21.764  87.267  16.684  0.00  0.00    -0.204 F 
ATOM     20  C   LIG    1      -22.557  88.446  14.790  0.00  0.00    +0.153 A 
ATOM     21  N   LIG    1      -22.629  88.666  13.455  0.00  0.00    -0.218 NA
BRANCH  15  23
ATOM     22  C   LIG    1      -21.582  89.360  10.821  0.00  0.00    +0.279 C 
ATOM     23  O   LIG    1      -21.917  88.056  11.295  0.00  0.00    -0.479 OA
ENDBRANCH  15  23
ENDBRANCH  10  16
ENDBRANCH   1  11
BRANCH   4  24
ATOM     24  C   LIG    1      -24.575  81.584  13.742  0.00  0.00    +0.249 C 
ATOM     25  N   LIG    1      -23.414  81.770  14.488  0.00  0.00    -0.308 N 
ATOM     26  H   LIG    1      -22.639  82.226  14.028  0.00  0.00    +0.149 HD
ATOM     27  O   LIG    1      -25.449  80.816  14.072  0.00  0.00    -0.270 OA
BRANCH  25  28
ATOM     28  C   LIG    1      -23.143  80.974  15.678  0.00  0.00    +0.076 C 
ATOM     29  C   LIG    1      -22.154  81.681  16.606  0.00  0.00    +0.037 C 
ATOM     30  C   LIG    1      -20.732  81.674  16.050  0.00  0.00    +0.086 C 
ATOM     31  N   LIG    1      -20.242  80.350  15.678  0.00  0.00    -0.300 NA
ATOM     32  C   LIG    1      -21.175  79.584  14.854  0.00  0.00    +0.086 C 
ATOM     33  C   LIG    1      -22.634  79.577  15.316  0.00  0.00    +0.037 C 
BRANCH  31  34
ATOM     34  C   LIG    1      -19.565  79.599  16.737  0.00  0.00    +0.112 C 
BRANCH  34  35
ATOM     35  C   LIG    1      -18.849  78.292  16.370  0.00  0.00    +0.171 C 
BRANCH  35  36
ATOM     36  O   LIG    1      -18.377  77.631  17.543  0.00  0.00    -0.394 OA
ATOM     37  H   LIG    1      -19.068  77.722  18.222  0.00  0.00    +0.209 HD
ENDBRANCH  35  36
ENDBRANCH  34  35
ENDBRANCH  31  34
ENDBRANCH  25  28
ENDBRANCH   4  24
TORSDOF 8
ENDMDL
MODEL 3
REMARK VINA RESULT:      -5.4     18.604     21.128
REMARK  Name = pdb/CHEMBL3676030.pdb
REMARK                            x       y       z     vdW  Elec       q    Type
REMARK                         _______ _______ _______ _____ _____    ______ ____
ROOT
ATOM      1  C   LIG    1      -20.516  79.244  34.422  0.00  0.00    +0.126 A 
ATOM      2  N   LIG    1      -20.719  78.795  33.199  0.00  0.00    -0.212 NA
ATOM      3  C   LIG    1      -19.690  78.148  32.549  0.00  0.00    +0.170 A 
ATOM      4  C   LIG    1      -19.579  77.500  31.329  0.00  0.00    +0.100 A 
ATOM      5  C   LIG    1      -18.212  77.182  31.216  0.00  0.00    +0.150 A 
ATOM      6  N   LIG    1      -17.499  77.538  32.280  0.00  0.00    -0.173 NA
ATOM      7  N   LIG    1      -18.416  78.064  33.123  0.00  0.00    -0.221 N 
ATOM      8  C   LIG    1      -18.203  78.465  34.425  0.00  0.00    +0.118 A 
ATOM      9  C   LIG    1      -19.205  78.986  35.135  0.00  0.00    +0.063 A 
ENDROOT
BRANCH   1  11
ATOM     10  C   LIG    1      -22.783  79.488  35.583  0.00  0.00    +0.110 C 
ATOM     11  N   LIG    1      -21.499  79.997  35.062  0.00  0.00    -0.308 N 
ATOM     12  C   LIG    1      -21.336  81.414  35.383  0.00  0.00    +0.107 C 
ATOM     13  C   LIG    1      -22.747  81.899  35.700  0.00  0.00    +0.021 C 
ATOM     14  C   LIG    1      -23.423  80.684  36.305  0.00  0.00    +0.029 C 
BRANCH  10  16
ATOM     15  C   LIG    1      -23.302  77.140  36.426  0.00  0.00    +0.220 A 
ATOM     16  C   LIG    1      -22.623  78.355  36.574  0.00  0.00    +0.037 A 
ATOM     17  C   LIG    1      -21.787  78.496  37.694  0.00  0.00    +0.050 A 
ATOM     18  C   LIG    1      -21.643  77.445  38.578  0.00  0.00    +0.142 A 
ATOM     19  F   LIG    1      -20.776  77.531  39.593  0.00  0.00    -0.204 F 
ATOM     20  C   LIG    1      -22.394  76.304  38.376  0.00  0.00    +0.153 A 
ATOM     21  N   LIG    1      -23.219  76.124  37.317  0.00  0.00    -0.218 NA
BRANCH  15  23
ATOM     22  C   LIG    1      -25.479  76.946  35.548  0.00  0.00    +0.279 C 
ATOM     23  O   LIG    1      -24.075  76.972  35.294  0.00  0.00    -0.479 OA
ENDBRANCH  15  23
ENDBRANCH  10  16
ENDBRANCH   1  11
BRANCH   4  24
ATOM     24  C   LIG    1      -20.641  77.187  30.386  0.00  0.00    +0.249 C 
ATOM     25  N   LIG    1      -21.898  77.112  30.981  0.00  0.00    -0.308 N 
ATOM     26  H   LIG    1      -21.927  76.991  31.982  0.00  0.00    +0.149 HD
ATOM     27  O   LIG    1      -20.470  77.046  29.197  0.00  0.00    -0.270 OA
BRANCH  25  28
ATOM     28  C   LIG    1      -23.082  76.767  30.205  0.00  0.00    +0.076 C 
ATOM     29  C   LIG    1      -24.160  77.846  30.326  0.00  0.00    +0.037 C 
ATOM     30  C   LIG    1      -24.828  77.846  31.698  0.00  0.00    +0.086 C 
ATOM     31  N   LIG    1      -25.346  76.546  32.111  0.00  0.00    -0.300 NA
ATOM     32  C   LIG    1      -24.394  75.449  31.947  0.00  0.00    +0.086 C 
ATOM     33  C   LIG    1      -23.643  75.402  30.613  0.00  0.00    +0.037 C 
BRANCH  31  34
ATOM     34  C   LIG    1      -26.726  76.253  31.715  0.00  0.00    +0.112 C 
BRANCH  34  35
ATOM     35  C   LIG    1      -27.867  76.997  32.420  0.00  0.00    +0.171 C 
BRANCH  35  36
ATOM     36  O   LIG    1      -28.616  77.772  31.486  0.00  0.00    -0.394 OA
ATOM     37  H   LIG    1      -27.986  78.350  31.021  0.00  0.00    +0.209 HD
ENDBRANCH  35  36
ENDBRANCH  34  35
ENDBRANCH  31  34
ENDBRANCH  25  28
ENDBRANCH   4  24
TORSDOF 8
ENDMDL
MODEL 4
REMARK VINA RESULT:      -5.3     16.783     21.018
REMARK  Name = pdb/CHEMBL3676030.pdb
REMARK                            x       y       z     vdW  Elec       q    Type
REMARK                         _______ _______ _______ _____ _____    ______ ____
ROOT
ATOM      1  C   LIG    1      -32.485  68.001  16.878  0.00  0.00    +0.126 A 
ATOM      2  N   LIG    1      -33.708  67.926  17.364  0.00  0.00    -0.212 NA
ATOM      3  C   LIG    1      -34.617  67.093  16.748  0.00  0.00    +0.170 A 
ATOM      4  C   LIG    1      -35.923  66.720  17.026  0.00  0.00    +0.100 A 
ATOM      5  C   LIG    1      -36.318  65.947  15.918  0.00  0.00    +0.150 A 
ATOM      6  N   LIG    1      -35.352  65.781  15.020  0.00  0.00    -0.173 NA
ATOM      7  N   LIG    1      -34.292  66.422  15.563  0.00  0.00    -0.221 N 
ATOM      8  C   LIG    1      -33.001  66.434  15.080  0.00  0.00    +0.118 A 
ATOM      9  C   LIG    1      -32.056  67.131  15.715  0.00  0.00    +0.063 A 
ENDROOT
BRANCH   1  11
ATOM     10  C   LIG    1      -30.789  68.739  18.647  0.00  0.00    +0.110 C 
ATOM     11  N   LIG    1      -31.576  68.915  17.411  0.00  0.00    -0.308 N 
ATOM     12  C   LIG    1      -31.216  70.164  16.742  0.00  0.00    +0.107 C 
ATOM     13  C   LIG    1      -30.532  70.994  17.824  0.00  0.00    +0.021 C 
ATOM     14  C   LIG    1      -29.858  69.960  18.705  0.00  0.00    +0.029 C 
BRANCH  10  16
ATOM     15  C   LIG    1      -30.322  66.333  19.345  0.00  0.00    +0.220 A 
ATOM     16  C   LIG    1      -29.941  67.485  18.647  0.00  0.00    +0.037 A 
ATOM     17  C   LIG    1      -28.724  67.444  17.946  0.00  0.00    +0.050 A 
ATOM     18  C   LIG    1      -27.972  66.285  17.946  0.00  0.00    +0.142 A 
ATOM     19  F   LIG    1      -26.862  66.201  17.205  0.00  0.00    -0.204 F 
ATOM     20  C   LIG    1      -28.405  65.217  18.706  0.00  0.00    +0.153 A 
ATOM     21  N   LIG    1      -29.566  65.211  19.404  0.00  0.00    -0.218 NA
BRANCH  15  23
ATOM     22  C   LIG    1      -32.450  65.339  19.521  0.00  0.00    +0.279 C 
ATOM     23  O   LIG    1      -31.547  66.345  19.981  0.00  0.00    -0.479 OA
ENDBRANCH  15  23
ENDBRANCH  10  16
ENDBRANCH   1  11
BRANCH   4  24
ATOM     24  C   LIG    1      -36.704  67.030  18.213  0.00  0.00    +0.249 C 
ATOM     25  N   LIG    1      -36.283  66.336  19.345  0.00  0.00    -0.308 N 
ATOM     26  H   LIG    1      -35.713  65.516  19.196  0.00  0.00    +0.149 HD
ATOM     27  O   LIG    1      -37.604  67.838  18.238  0.00  0.00    -0.270 OA
BRANCH  25  28
ATOM     28  C   LIG    1      -36.970  66.482  20.621  0.00  0.00    +0.076 C 
ATOM     29  C   LIG    1      -36.290  67.532  21.502  0.00  0.00    +0.037 C 
ATOM     30  C   LIG    1      -34.957  67.042  22.062  0.00  0.00    +0.086 C 
ATOM     31  N   LIG    1      -35.033  65.757  22.749  0.00  0.00    -0.300 NA
ATOM     32  C   LIG    1      -35.743  64.724  21.997  0.00  0.00    +0.086 C 
ATOM     33  C   LIG    1      -37.070  65.145  21.361  0.00  0.00    +0.037 C 
BRANCH  31  34
ATOM     34  C   LIG    1      -35.330  65.816  24.183  0.00  0.00    +0.112 C 
BRANCH  34  35
ATOM     35  C   LIG    1      -34.833  67.024  24.987  0.00  0.00    +0.171 C 
BRANCH  35  36
ATOM     36  O   LIG    1      -33.923  66.610  26.005  0.00  0.00    -0.394 OA
ATOM     37  H   LIG    1      -34.221  67.013  26.838  0.00  0.00    +0.209 HD
ENDBRANCH  35  36
ENDBRANCH  34  35
ENDBRANCH  31  34
ENDBRANCH  25  28
ENDBRANCH   4  24
TORSDOF 8
ENDMDL
MODEL 5
REMARK VINA RESULT:      -4.9     17.610     21.250
REMARK  Name = pdb/CHEMBL3676030.pdb
REMARK                            x       y       z     vdW  Elec       q    Type
REMARK                         _______ _______ _______ _____ _____    ______ ____
ROOT
ATOM      1  C   LIG    1      -24.823  72.299  32.202  0.00  0.00    +0.126 A 
ATOM      2  N   LIG    1      -24.954  73.560  31.840  0.00  0.00    -0.212 NA
ATOM      3  C   LIG    1      -26.193  74.155  31.944  0.00  0.00    +0.170 A 
ATOM      4  C   LIG    1      -26.663  75.443  31.735  0.00  0.00    +0.100 A 
ATOM      5  C   LIG    1      -28.059  75.342  31.884  0.00  0.00    +0.150 A 
ATOM      6  N   LIG    1      -28.468  74.121  32.212  0.00  0.00    -0.173 NA
ATOM      7  N   LIG    1      -27.320  73.413  32.317  0.00  0.00    -0.221 N 
ATOM      8  C   LIG    1      -27.191  72.115  32.764  0.00  0.00    +0.118 A 
ATOM      9  C   LIG    1      -25.989  71.536  32.796  0.00  0.00    +0.063 A 
ENDROOT
BRANCH   1  11
ATOM     10  C   LIG    1      -23.443  70.257  31.511  0.00  0.00    +0.110 C 
ATOM     11  N   LIG    1      -23.611  71.639  32.006  0.00  0.00    -0.308 N 
ATOM     12  C   LIG    1      -22.311  72.283  32.190  0.00  0.00    +0.107 C 
ATOM     13  C   LIG    1      -21.318  71.127  32.254  0.00  0.00    +0.021 C 
ATOM     14  C   LIG    1      -21.926  70.072  31.351  0.00  0.00    +0.029 C 
BRANCH  10  16
ATOM     15  C   LIG    1      -25.214  69.175  30.032  0.00  0.00    +0.220 A 
ATOM     16  C   LIG    1      -24.103  70.015  30.170  0.00  0.00    +0.037 A 
ATOM     17  C   LIG    1      -23.605  70.624  29.006  0.00  0.00    +0.050 A 
ATOM     18  C   LIG    1      -24.230  70.402  27.795  0.00  0.00    +0.142 A 
ATOM     19  F   LIG    1      -23.825  71.052  26.698  0.00  0.00    -0.204 F 
ATOM     20  C   LIG    1      -25.289  69.517  27.751  0.00  0.00    +0.153 A 
ATOM     21  N   LIG    1      -25.800  68.900  28.843  0.00  0.00    -0.218 NA
BRANCH  15  23
ATOM     22  C   LIG    1      -25.850  67.202  31.149  0.00  0.00    +0.279 C 
ATOM     23  O   LIG    1      -25.748  68.625  31.181  0.00  0.00    -0.479 OA
ENDBRANCH  15  23
ENDBRANCH  10  16
ENDBRANCH   1  11
BRANCH   4  24
ATOM     24  C   LIG    1      -25.886  76.640  31.455  0.00  0.00    +0.249 C 
ATOM     25  N   LIG    1      -24.519  76.396  31.353  0.00  0.00    -0.308 N 
ATOM     26  H   LIG    1      -24.174  75.533  31.748  0.00  0.00    +0.149 HD
ATOM     27  O   LIG    1      -26.370  77.735  31.285  0.00  0.00    -0.270 OA
BRANCH  25  28
ATOM     28  C   LIG    1      -23.572  77.479  31.118  0.00  0.00    +0.076 C 
ATOM     29  C   LIG    1      -23.029  77.441  29.689  0.00  0.00    +0.037 C 
ATOM     30  C   LIG    1      -22.052  76.289  29.471  0.00  0.00    +0.086 C 
ATOM     31  N   LIG    1      -20.964  76.235  30.443  0.00  0.00    -0.300 NA
ATOM     32  C   LIG    1      -21.405  76.346  31.832  0.00  0.00    +0.086 C 
ATOM     33  C   LIG    1      -22.424  77.450  32.130  0.00  0.00    +0.037 C 
BRANCH  31  34
ATOM     34  C   LIG    1      -19.760  76.993  30.096  0.00  0.00    +0.112 C 
BRANCH  34  35
ATOM     35  C   LIG    1      -18.782  77.372  31.216  0.00  0.00    +0.171 C 
BRANCH  35  36
ATOM     36  O   LIG    1      -17.581  76.609  31.114  0.00  0.00    -0.394 OA
ATOM     37  H   LIG    1      -17.304  76.631  30.182  0.00  0.00    +0.209 HD
ENDBRANCH  35  36
ENDBRANCH  34  35
ENDBRANCH  31  34
ENDBRANCH  25  28
ENDBRANCH   4  24
TORSDOF 8
ENDMDL
MODEL 6
REMARK VINA RESULT:      -4.8     16.866     21.048
REMARK  Name = pdb/CHEMBL3676030.pdb
REMARK                            x       y       z     vdW  Elec       q    Type
REMARK                         _______ _______ _______ _____ _____    ______ ____
ROOT
ATOM      1  C   LIG    1      -32.758  68.228  16.754  0.00  0.00    +0.126 A 
ATOM      2  N   LIG    1      -33.737  67.690  17.455  0.00  0.00    -0.212 NA
ATOM      3  C   LIG    1      -34.702  66.959  16.795  0.00  0.00    +0.170 A 
ATOM      4  C   LIG    1      -35.794  66.211  17.209  0.00  0.00    +0.100 A 
ATOM      5  C   LIG    1      -36.445  65.840  16.017  0.00  0.00    +0.150 A 
ATOM      6  N   LIG    1      -35.817  66.256  14.922  0.00  0.00    -0.173 NA
ATOM      7  N   LIG    1      -34.715  66.878  15.398  0.00  0.00    -0.221 N 
ATOM      8  C   LIG    1      -33.665  67.375  14.655  0.00  0.00    +0.118 A 
ATOM      9  C   LIG    1      -32.646  67.985  15.264  0.00  0.00    +0.063 A 
ENDROOT
BRANCH   1  11
ATOM     10  C   LIG    1      -31.057  68.749  18.595  0.00  0.00    +0.110 C 
ATOM     11  N   LIG    1      -31.831  69.063  17.377  0.00  0.00    -0.308 N 
ATOM     12  C   LIG    1      -31.434  70.361  16.832  0.00  0.00    +0.107 C 
ATOM     13  C   LIG    1      -30.737  71.064  17.993  0.00  0.00    +0.021 C 
ATOM     14  C   LIG    1      -30.096  69.933  18.774  0.00  0.00    +0.029 C 
BRANCH  10  16
ATOM     15  C   LIG    1      -30.547  66.331  19.219  0.00  0.00    +0.220 A 
ATOM     16  C   LIG    1      -30.242  67.478  18.478  0.00  0.00    +0.037 A 
ATOM     17  C   LIG    1      -29.131  67.416  17.619  0.00  0.00    +0.050 A 
ATOM     18  C   LIG    1      -28.410  66.244  17.515  0.00  0.00    +0.142 A 
ATOM     19  F   LIG    1      -27.411  66.142  16.631  0.00  0.00    -0.204 F 
ATOM     20  C   LIG    1      -28.757  65.181  18.326  0.00  0.00    +0.153 A 
ATOM     21  N   LIG    1      -29.813  65.195  19.174  0.00  0.00    -0.218 NA
BRANCH  15  23
ATOM     22  C   LIG    1      -32.624  65.340  19.720  0.00  0.00    +0.279 C 
ATOM     23  O   LIG    1      -31.675  66.364  20.015  0.00  0.00    -0.479 OA
ENDBRANCH  15  23
ENDBRANCH  10  16
ENDBRANCH   1  11
BRANCH   4  24
ATOM     24  C   LIG    1      -36.168  65.860  18.570  0.00  0.00    +0.249 C 
ATOM     25  N   LIG    1      -36.593  66.952  19.322  0.00  0.00    -0.308 N 
ATOM     26  H   LIG    1      -36.340  67.869  18.985  0.00  0.00    +0.149 HD
ATOM     27  O   LIG    1      -36.156  64.731  19.004  0.00  0.00    -0.270 OA
BRANCH  25  28
ATOM     28  C   LIG    1      -36.969  66.806  20.722  0.00  0.00    +0.076 C 
ATOM     29  C   LIG    1      -38.466  66.526  20.869  0.00  0.00    +0.037 C 
ATOM     30  C   LIG    1      -39.317  67.759  20.575  0.00  0.00    +0.086 C 
ATOM     31  N   LIG    1      -38.933  68.946  21.332  0.00  0.00    -0.300 NA
ATOM     32  C   LIG    1      -37.499  69.229  21.302  0.00  0.00    +0.086 C 
ATOM     33  C   LIG    1      -36.570  68.036  21.541  0.00  0.00    +0.037 C 
BRANCH  31  34
ATOM     34  C   LIG    1      -39.586  69.113  22.632  0.00  0.00    +0.112 C 
BRANCH  34  35
ATOM     35  C   LIG    1      -38.844  69.880  23.735  0.00  0.00    +0.171 C 
BRANCH  35  36
ATOM     36  O   LIG    1      -39.345  71.210  23.846  0.00  0.00    -0.394 OA
ATOM     37  H   LIG    1      -39.519  71.528  22.943  0.00  0.00    +0.209 HD
ENDBRANCH  35  36
ENDBRANCH  34  35
ENDBRANCH  31  34
ENDBRANCH  25  28
ENDBRANCH   4  24
TORSDOF 8
ENDMDL
MODEL 7
REMARK VINA RESULT:      -4.8      2.744      4.172
REMARK  Name = pdb/CHEMBL3676030.pdb
REMARK                            x       y       z     vdW  Elec       q    Type
REMARK                         _______ _______ _______ _____ _____    ______ ____
ROOT
ATOM      1  C   LIG    1      -22.654  83.955  13.408  0.00  0.00    +0.126 A 
ATOM      2  N   LIG    1      -22.585  82.651  13.585  0.00  0.00    -0.212 NA
ATOM      3  C   LIG    1      -22.551  82.156  14.871  0.00  0.00    +0.170 A 
ATOM      4  C   LIG    1      -22.558  80.879  15.412  0.00  0.00    +0.100 A 
ATOM      5  C   LIG    1      -22.367  81.075  16.793  0.00  0.00    +0.150 A 
ATOM      6  N   LIG    1      -22.294  82.356  17.138  0.00  0.00    -0.173 NA
ATOM      7  N   LIG    1      -22.478  83.016  15.973  0.00  0.00    -0.221 N 
ATOM      8  C   LIG    1      -22.618  84.378  15.812  0.00  0.00    +0.118 A 
ATOM      9  C   LIG    1      -22.776  84.894  14.591  0.00  0.00    +0.063 A 
ENDROOT
BRANCH   1  11
ATOM     10  C   LIG    1      -21.928  85.763  11.748  0.00  0.00    +0.110 C 
ATOM     11  N   LIG    1      -22.578  84.491  12.124  0.00  0.00    -0.308 N 
ATOM     12  C   LIG    1      -23.075  83.794  10.938  0.00  0.00    +0.107 C 
ATOM     13  C   LIG    1      -23.145  84.874   9.862  0.00  0.00    +0.021 C 
ATOM     14  C   LIG    1      -22.009  85.815  10.214  0.00  0.00    +0.029 C 
BRANCH  10  16
ATOM     15  C   LIG    1      -20.009  86.790  13.072  0.00  0.00    +0.220 A 
ATOM     16  C   LIG    1      -20.473  85.837  12.158  0.00  0.00    +0.037 A 
ATOM     17  C   LIG    1      -19.530  84.948  11.616  0.00  0.00    +0.050 A 
ATOM     18  C   LIG    1      -18.210  85.023  12.014  0.00  0.00    +0.142 A 
ATOM     19  F   LIG    1      -17.322  84.122  11.580  0.00  0.00    -0.204 F 
ATOM     20  C   LIG    1      -17.838  86.031  12.882  0.00  0.00    +0.153 A 
ATOM     21  N   LIG    1      -18.708  86.916  13.425  0.00  0.00    -0.218 NA
BRANCH  15  23
ATOM     22  C   LIG    1      -20.789  89.000  13.308  0.00  0.00    +0.279 C 
ATOM     23  O   LIG    1      -20.941  87.625  13.657  0.00  0.00    -0.479 OA
ENDBRANCH  15  23
ENDBRANCH  10  16
ENDBRANCH   1  11
BRANCH   4  24
ATOM     24  C   LIG    1      -22.752  79.618  14.714  0.00  0.00    +0.249 C 
ATOM     25  N   LIG    1      -23.852  79.625  13.861  0.00  0.00    -0.308 N 
ATOM     26  H   LIG    1      -24.546  80.343  14.011  0.00  0.00    +0.149 HD
ATOM     27  O   LIG    1      -22.014  78.665  14.824  0.00  0.00    -0.270 OA
BRANCH  25  28
ATOM     28  C   LIG    1      -24.233  78.438  13.107  0.00  0.00    +0.076 C 
ATOM     29  C   LIG    1      -24.944  78.810  11.805  0.00  0.00    +0.037 C 
ATOM     30  C   LIG    1      -26.356  79.339  12.048  0.00  0.00    +0.086 C 
ATOM     31  N   LIG    1      -27.190  78.463  12.864  0.00  0.00    -0.300 NA
ATOM     32  C   LIG    1      -26.542  78.001  14.090  0.00  0.00    +0.086 C 
ATOM     33  C   LIG    1      -25.104  77.497  13.944  0.00  0.00    +0.037 C 
BRANCH  31  34
ATOM     34  C   LIG    1      -27.961  77.454  12.134  0.00  0.00    +0.112 C 
BRANCH  34  35
ATOM     35  C   LIG    1      -29.210  77.899  11.363  0.00  0.00    +0.171 C 
BRANCH  35  36
ATOM     36  O   LIG    1      -30.116  78.584  12.225  0.00  0.00    -0.394 OA
ATOM     37  H   LIG    1      -29.701  79.431  12.464  0.00  0.00    +0.209 HD
ENDBRANCH  35  36
ENDBRANCH  34  35
ENDBRANCH  31  34
ENDBRANCH  25  28
ENDBRANCH   4  24
TORSDOF 8
ENDMDL
MODEL 8
REMARK VINA RESULT:      -4.6      3.613      4.980
REMARK  Name = pdb/CHEMBL3676030.pdb
REMARK                            x       y       z     vdW  Elec       q    Type
REMARK                         _______ _______ _______ _____ _____    ______ ____
ROOT
ATOM      1  C   LIG    1      -23.217  87.314  12.238  0.00  0.00    +0.126 A 
ATOM      2  N   LIG    1      -22.442  86.253  12.345  0.00  0.00    -0.212 NA
ATOM      3  C   LIG    1      -21.251  86.366  13.030  0.00  0.00    +0.170 A 
ATOM      4  C   LIG    1      -20.261  85.467  13.394  0.00  0.00    +0.100 A 
ATOM      5  C   LIG    1      -19.246  86.263  13.958  0.00  0.00    +0.150 A 
ATOM      6  N   LIG    1      -19.556  87.554  14.011  0.00  0.00    -0.173 NA
ATOM      7  N   LIG    1      -20.811  87.606  13.509  0.00  0.00    -0.221 N 
ATOM      8  C   LIG    1      -21.636  88.709  13.467  0.00  0.00    +0.118 A 
ATOM      9  C   LIG    1      -22.850  88.616  12.920  0.00  0.00    +0.063 A 
ENDROOT
BRANCH   1  11
ATOM     10  C   LIG    1      -25.005  88.398  10.761  0.00  0.00    +0.110 C 
ATOM     11  N   LIG    1      -24.372  87.260  11.459  0.00  0.00    -0.308 N 
ATOM     12  C   LIG    1      -25.074  86.014  11.158  0.00  0.00    +0.107 C 
ATOM     13  C   LIG    1      -26.438  86.459  10.639  0.00  0.00    +0.021 C 
ATOM     14  C   LIG    1      -26.153  87.779   9.949  0.00  0.00    +0.029 C 
BRANCH  10  16
ATOM     15  C   LIG    1      -23.774  90.474   9.946  0.00  0.00    +0.220 A 
ATOM     16  C   LIG    1      -24.070  89.113   9.810  0.00  0.00    +0.037 A 
ATOM     17  C   LIG    1      -23.475  88.426   8.738  0.00  0.00    +0.050 A 
ATOM     18  C   LIG    1      -22.614  89.094   7.890  0.00  0.00    +0.142 A 
ATOM     19  F   LIG    1      -21.966  88.429   6.926  0.00  0.00    -0.204 F 
ATOM     20  C   LIG    1      -22.423  90.449   8.074  0.00  0.00    +0.153 A 
ATOM     21  N   LIG    1      -22.981  91.156   9.086  0.00  0.00    -0.218 NA
BRANCH  15  23
ATOM     22  C   LIG    1      -24.744  92.467  10.744  0.00  0.00    +0.279 C 
ATOM     23  O   LIG    1      -24.304  91.140  11.033  0.00  0.00    -0.479 OA
ENDBRANCH  15  23
ENDBRANCH  10  16
ENDBRANCH   1  11
BRANCH   4  24
ATOM     24  C   LIG    1      -20.277  84.019  13.254  0.00  0.00    +0.249 C 
ATOM     25  N   LIG    1      -20.895  83.371  14.320  0.00  0.00    -0.308 N 
ATOM     26  H   LIG    1      -21.003  83.894  15.176  0.00  0.00    +0.149 HD
ATOM     27  O   LIG    1      -19.839  83.429  12.294  0.00  0.00    -0.270 OA
BRANCH  25  28
ATOM     28  C   LIG    1      -20.971  81.917  14.380  0.00  0.00    +0.076 C 
ATOM     29  C   LIG    1      -22.082  81.381  13.476  0.00  0.00    +0.037 C 
ATOM     30  C   LIG    1      -23.473  81.664  14.037  0.00  0.00    +0.086 C 
ATOM     31  N   LIG    1      -23.663  81.221  15.415  0.00  0.00    -0.300 NA
ATOM     32  C   LIG    1      -22.594  81.631  16.323  0.00  0.00    +0.086 C 
ATOM     33  C   LIG    1      -21.164  81.424  15.816  0.00  0.00    +0.037 C 
BRANCH  31  34
ATOM     34  C   LIG    1      -24.147  79.848  15.582  0.00  0.00    +0.112 C 
BRANCH  34  35
ATOM     35  C   LIG    1      -25.507  79.469  14.981  0.00  0.00    +0.171 C 
BRANCH  35  36
ATOM     36  O   LIG    1      -26.288  78.738  15.924  0.00  0.00    -0.394 OA
ATOM     37  H   LIG    1      -25.675  78.385  16.593  0.00  0.00    +0.209 HD
ENDBRANCH  35  36
ENDBRANCH  34  35
ENDBRANCH  31  34
ENDBRANCH  25  28
ENDBRANCH   4  24
TORSDOF 8
ENDMDL
MODEL 9
REMARK VINA RESULT:      -4.6     14.437     19.337
REMARK  Name = pdb/CHEMBL3676030.pdb
REMARK                            x       y       z     vdW  Elec       q    Type
REMARK                         _______ _______ _______ _____ _____    ______ ____
ROOT
ATOM      1  C   LIG    1      -31.215  67.405  16.056  0.00  0.00    +0.126 A 
ATOM      2  N   LIG    1      -32.525  67.262  16.067  0.00  0.00    -0.212 NA
ATOM      3  C   LIG    1      -33.242  67.623  14.947  0.00  0.00    +0.170 A 
ATOM      4  C   LIG    1      -34.579  67.536  14.591  0.00  0.00    +0.100 A 
ATOM      5  C   LIG    1      -34.666  68.215  13.360  0.00  0.00    +0.150 A 
ATOM      6  N   LIG    1      -33.493  68.659  12.920  0.00  0.00    -0.173 NA
ATOM      7  N   LIG    1      -32.614  68.234  13.855  0.00  0.00    -0.221 N 
ATOM      8  C   LIG    1      -31.240  68.329  13.797  0.00  0.00    +0.118 A 
ATOM      9  C   LIG    1      -30.496  67.881  14.810  0.00  0.00    +0.063 A 
ENDROOT
BRANCH   1  11
ATOM     10  C   LIG    1      -29.230  67.841  17.613  0.00  0.00    +0.110 C 
ATOM     11  N   LIG    1      -30.474  67.154  17.210  0.00  0.00    -0.308 N 
ATOM     12  C   LIG    1      -30.899  66.209  18.242  0.00  0.00    +0.107 C 
ATOM     13  C   LIG    1      -29.648  65.971  19.082  0.00  0.00    +0.021 C 
ATOM     14  C   LIG    1      -28.905  67.291  19.010  0.00  0.00    +0.029 C 
BRANCH  10  16
ATOM     15  C   LIG    1      -28.304  70.210  17.473  0.00  0.00    +0.220 A 
ATOM     16  C   LIG    1      -29.378  69.344  17.708  0.00  0.00    +0.037 A 
ATOM     17  C   LIG    1      -30.611  69.923  18.054  0.00  0.00    +0.050 A 
ATOM     18  C   LIG    1      -30.729  71.297  18.120  0.00  0.00    +0.142 A 
ATOM     19  F   LIG    1      -31.919  71.862  18.352  0.00  0.00    -0.204 F 
ATOM     20  C   LIG    1      -29.600  72.067  17.921  0.00  0.00    +0.153 A 
ATOM     21  N   LIG    1      -28.389  71.556  17.594  0.00  0.00    -0.218 NA
BRANCH  15  23
ATOM     22  C   LIG    1      -25.990  70.032  17.873  0.00  0.00    +0.279 C 
ATOM     23  O   LIG    1      -27.107  69.652  17.069  0.00  0.00    -0.479 OA
ENDBRANCH  15  23
ENDBRANCH  10  16
ENDBRANCH   1  11
BRANCH   4  24
ATOM     24  C   LIG    1      -35.651  66.868  15.311  0.00  0.00    +0.249 C 
ATOM     25  N   LIG    1      -35.440  66.815  16.686  0.00  0.00    -0.308 N 
ATOM     26  H   LIG    1      -34.496  66.963  17.013  0.00  0.00    +0.149 HD
ATOM     27  O   LIG    1      -36.650  66.434  14.785  0.00  0.00    -0.270 OA
BRANCH  25  28
ATOM     28  C   LIG    1      -36.383  66.146  17.572  0.00  0.00    +0.076 C 
ATOM     29  C   LIG    1      -37.344  67.146  18.218  0.00  0.00    +0.037 C 
ATOM     30  C   LIG    1      -36.661  68.000  19.283  0.00  0.00    +0.086 C 
ATOM     31  N   LIG    1      -35.949  67.232  20.299  0.00  0.00    -0.300 NA
ATOM     32  C   LIG    1      -35.070  66.199  19.754  0.00  0.00    +0.086 C 
ATOM     33  C   LIG    1      -35.662  65.326  18.645  0.00  0.00    +0.037 C 
BRANCH  31  34
ATOM     34  C   LIG    1      -36.736  66.841  21.472  0.00  0.00    +0.112 C 
BRANCH  34  35
ATOM     35  C   LIG    1      -36.208  67.204  22.866  0.00  0.00    +0.171 C 
BRANCH  35  36
ATOM     36  O   LIG    1      -35.057  68.040  22.766  0.00  0.00    -0.394 OA
ATOM     37  H   LIG    1      -34.777  68.254  23.672  0.00  0.00    +0.209 HD
ENDBRANCH  35  36
ENDBRANCH  34  35
ENDBRANCH  31  34
ENDBRANCH  25  28
ENDBRANCH   4  24
TORSDOF 8
ENDMDL
