MODEL 1
REMARK VINA RESULT:      -6.6      0.000      0.000
REMARK  Name = pdb/CHEMBL3977553.pdb
REMARK                            x       y       z     vdW  Elec       q    Type
REMARK                         _______ _______ _______ _____ _____    ______ ____
ROOT
ATOM      1  C   LIG    1      -37.774  76.635  26.387  0.00  0.00    +0.149 A 
ATOM      2  N   LIG    1      -38.999  77.004  25.984  0.00  0.00    -0.160 NA
ATOM      3  N   LIG    1      -39.514  75.917  25.350  0.00  0.00    -0.218 N 
ATOM      4  C   LIG    1      -38.583  74.869  25.291  0.00  0.00    +0.129 A 
ATOM      5  C   LIG    1      -37.488  75.308  25.990  0.00  0.00    +0.078 A 
ENDROOT
BRANCH   3   6
ATOM      6  C   LIG    1      -40.844  75.967  24.832  0.00  0.00    +0.067 A 
ATOM      7  C   LIG    1      -41.096  76.036  23.455  0.00  0.00    +0.028 A 
ATOM      8  C   LIG    1      -42.411  76.062  22.980  0.00  0.00    +0.002 A 
ATOM      9  C   LIG    1      -43.480  76.010  23.869  0.00  0.00    +0.000 A 
ATOM     10  C   LIG    1      -43.242  75.938  25.238  0.00  0.00    +0.002 A 
ATOM     11  C   LIG    1      -41.930  75.906  25.721  0.00  0.00    +0.028 A 
ENDBRANCH   3   6
BRANCH   4  12
ATOM     12  N   LIG    1      -38.694  73.664  24.597  0.00  0.00    -0.266 N 
ATOM     13  H   LIG    1      -38.072  73.532  23.812  0.00  0.00    +0.157 HD
ATOM     14  C   LIG    1      -39.509  72.544  24.995  0.00  0.00    +0.251 C 
ATOM     15  O   LIG    1      -40.203  72.578  25.989  0.00  0.00    -0.270 OA
BRANCH  14  16
ATOM     16  C   LIG    1      -39.491  71.357  24.093  0.00  0.00    +0.056 A 
ATOM     17  C   LIG    1      -40.488  71.103  23.151  0.00  0.00    +0.056 A 
ATOM     18 CL   LIG    1      -41.820  72.158  22.841  0.00  0.00    -0.083 Cl
ATOM     19  C   LIG    1      -40.431  69.950  22.376  0.00  0.00    +0.059 A 
ATOM     20  C   LIG    1      -39.375  69.056  22.521  0.00  0.00    +0.134 A 
ATOM     21  F   LIG    1      -39.433  67.944  21.778  0.00  0.00    -0.205 F 
ATOM     22  C   LIG    1      -38.314  69.288  23.406  0.00  0.00    +0.039 A 
ATOM     23  C   LIG    1      -38.403  70.457  24.204  0.00  0.00    +0.027 A 
BRANCH  22  24
ATOM     24  C   LIG    1      -37.146  68.381  23.505  0.00  0.00    +0.109 A 
ATOM     25  C   LIG    1      -36.937  67.488  24.563  0.00  0.00    +0.149 A 
ATOM     26  F   LIG    1      -37.788  67.388  25.593  0.00  0.00    -0.203 F 
ATOM     27  C   LIG    1      -35.848  66.625  24.543  0.00  0.00    +0.042 A 
ATOM     28  C   LIG    1      -34.977  66.660  23.465  0.00  0.00    +0.023 A 
ATOM     29  C   LIG    1      -35.234  67.568  22.452  0.00  0.00    +0.111 A 
ATOM     30  N   LIG    1      -36.288  68.422  22.445  0.00  0.00    -0.252 NA
ENDBRANCH  22  24
ENDBRANCH  14  16
ENDBRANCH   4  12
BRANCH   1  31
ATOM     31  C   LIG    1      -36.853  77.513  27.104  0.00  0.00    +0.236 C 
ATOM     32  N   LIG    1      -35.841  76.987  27.684  0.00  0.00    -0.244 NA
BRANCH  31  33
ATOM     33  O   LIG    1      -37.186  78.819  27.129  0.00  0.00    -0.491 OA
ATOM     34  H   LIG    1      -37.534  79.122  26.280  0.00  0.00    +0.294 HD
ENDBRANCH  31  33
BRANCH  32  35
ATOM     35  C   LIG    1      -34.876  77.785  28.421  0.00  0.00    +0.183 C 
BRANCH  35  36
ATOM     36  C   LIG    1      -33.702  78.118  27.569  0.00  0.00    +0.011 A 
ATOM     37  C   LIG    1      -33.129  79.347  27.305  0.00  0.00    +0.110 A 
ATOM     38  N   LIG    1      -32.079  79.116  26.467  0.00  0.00    -0.284 N 
ATOM     39  H   LIG    1      -31.434  79.790  26.066  0.00  0.00    +0.188 HD
ATOM     40  N   LIG    1      -31.924  77.820  26.159  0.00  0.00    -0.182 NA
ATOM     41  C   LIG    1      -32.897  77.212  26.840  0.00  0.00    +0.139 A 
ENDBRANCH  35  36
ENDBRANCH  32  35
ENDBRANCH   1  31
TORSDOF 8
ENDMDL
MODEL 2
REMARK VINA RESULT:      -6.5     17.409     21.474
REMARK  Name = pdb/CHEMBL3977553.pdb
REMARK                            x       y       z     vdW  Elec       q    Type
REMARK                         _______ _______ _______ _____ _____    ______ ____
ROOT
ATOM      1  C   LIG    1      -32.370  93.182  19.614  0.00  0.00    +0.149 A 
ATOM      2  N   LIG    1      -31.682  94.306  19.863  0.00  0.00    -0.160 NA
ATOM      3  N   LIG    1      -31.715  94.460  21.214  0.00  0.00    -0.218 N 
ATOM      4  C   LIG    1      -32.488  93.460  21.824  0.00  0.00    +0.129 A 
ATOM      5  C   LIG    1      -32.871  92.619  20.810  0.00  0.00    +0.078 A 
ENDROOT
BRANCH   3   6
ATOM      6  C   LIG    1      -31.026  95.555  21.817  0.00  0.00    +0.067 A 
ATOM      7  C   LIG    1      -31.714  96.658  22.342  0.00  0.00    +0.028 A 
ATOM      8  C   LIG    1      -31.010  97.705  22.945  0.00  0.00    +0.002 A 
ATOM      9  C   LIG    1      -29.622  97.658  23.038  0.00  0.00    +0.000 A 
ATOM     10  C   LIG    1      -28.929  96.565  22.523  0.00  0.00    +0.002 A 
ATOM     11  C   LIG    1      -29.626  95.511  21.923  0.00  0.00    +0.028 A 
ENDBRANCH   3   6
BRANCH   4  12
ATOM     12  N   LIG    1      -32.872  93.373  23.163  0.00  0.00    -0.266 N 
ATOM     13  H   LIG    1      -33.862  93.299  23.347  0.00  0.00    +0.157 HD
ATOM     14  C   LIG    1      -31.974  93.230  24.280  0.00  0.00    +0.251 C 
ATOM     15  O   LIG    1      -30.770  93.197  24.135  0.00  0.00    -0.270 OA
BRANCH  14  16
ATOM     16  C   LIG    1      -32.601  93.172  25.632  0.00  0.00    +0.056 A 
ATOM     17  C   LIG    1      -33.180  94.281  26.250  0.00  0.00    +0.056 A 
ATOM     18 CL   LIG    1      -33.325  95.835  25.509  0.00  0.00    -0.083 Cl
ATOM     19  C   LIG    1      -33.703  94.165  27.532  0.00  0.00    +0.059 A 
ATOM     20  C   LIG    1      -33.672  92.943  28.197  0.00  0.00    +0.134 A 
ATOM     21  F   LIG    1      -34.143  92.938  29.449  0.00  0.00    -0.205 F 
ATOM     22  C   LIG    1      -33.160  91.781  27.604  0.00  0.00    +0.039 A 
ATOM     23  C   LIG    1      -32.609  91.926  26.306  0.00  0.00    +0.027 A 
BRANCH  22  24
ATOM     24  C   LIG    1      -33.199  90.461  28.276  0.00  0.00    +0.109 A 
ATOM     25  C   LIG    1      -34.184  89.494  28.044  0.00  0.00    +0.149 A 
ATOM     26  F   LIG    1      -35.194  89.694  27.187  0.00  0.00    -0.203 F 
ATOM     27  C   LIG    1      -34.108  88.255  28.668  0.00  0.00    +0.042 A 
ATOM     28  C   LIG    1      -33.045  87.990  29.518  0.00  0.00    +0.023 A 
ATOM     29  C   LIG    1      -32.104  88.989  29.712  0.00  0.00    +0.111 A 
ATOM     30  N   LIG    1      -32.154  90.207  29.115  0.00  0.00    -0.252 NA
ENDBRANCH  22  24
ENDBRANCH  14  16
ENDBRANCH   4  12
BRANCH   1  31
ATOM     31  C   LIG    1      -32.600  92.647  18.275  0.00  0.00    +0.236 C 
ATOM     32  N   LIG    1      -33.571  91.831  18.105  0.00  0.00    -0.244 NA
BRANCH  31  33
ATOM     33  O   LIG    1      -31.720  93.033  17.329  0.00  0.00    -0.491 OA
ATOM     34  H   LIG    1      -31.137  92.311  17.059  0.00  0.00    +0.294 HD
ENDBRANCH  31  33
BRANCH  32  35
ATOM     35  C   LIG    1      -33.870  91.249  16.808  0.00  0.00    +0.183 C 
BRANCH  35  36
ATOM     36  C   LIG    1      -33.581  89.789  16.804  0.00  0.00    +0.011 A 
ATOM     37  C   LIG    1      -33.501  88.906  17.864  0.00  0.00    +0.110 A 
ATOM     38  N   LIG    1      -33.214  87.684  17.333  0.00  0.00    -0.284 N 
ATOM     39  H   LIG    1      -33.081  86.803  17.819  0.00  0.00    +0.188 HD
ATOM     40  N   LIG    1      -33.095  87.703  15.998  0.00  0.00    -0.182 NA
ATOM     41  C   LIG    1      -33.336  88.974  15.674  0.00  0.00    +0.139 A 
ENDBRANCH  35  36
ENDBRANCH  32  35
ENDBRANCH   1  31
TORSDOF 8
ENDMDL
MODEL 3
REMARK VINA RESULT:      -6.5      4.180      9.876
REMARK  Name = pdb/CHEMBL3977553.pdb
REMARK                            x       y       z     vdW  Elec       q    Type
REMARK                         _______ _______ _______ _____ _____    ______ ____
ROOT
ATOM      1  C   LIG    1      -40.382  73.013  23.894  0.00  0.00    +0.149 A 
ATOM      2  N   LIG    1      -39.913  71.758  23.824  0.00  0.00    -0.160 NA
ATOM      3  N   LIG    1      -38.764  71.761  24.552  0.00  0.00    -0.218 N 
ATOM      4  C   LIG    1      -38.466  73.044  25.034  0.00  0.00    +0.129 A 
ATOM      5  C   LIG    1      -39.519  73.836  24.652  0.00  0.00    +0.078 A 
ENDROOT
BRANCH   3   6
ATOM      6  C   LIG    1      -38.030  70.548  24.716  0.00  0.00    +0.067 A 
ATOM      7  C   LIG    1      -37.856  69.956  25.974  0.00  0.00    +0.028 A 
ATOM      8  C   LIG    1      -37.150  68.756  26.097  0.00  0.00    +0.002 A 
ATOM      9  C   LIG    1      -36.620  68.133  24.971  0.00  0.00    +0.000 A 
ATOM     10  C   LIG    1      -36.789  68.710  23.715  0.00  0.00    +0.002 A 
ATOM     11  C   LIG    1      -37.500  69.907  23.583  0.00  0.00    +0.028 A 
ENDBRANCH   3   6
BRANCH   4  12
ATOM     12  N   LIG    1      -37.307  73.465  25.687  0.00  0.00    -0.266 N 
ATOM     13  H   LIG    1      -36.604  73.917  25.119  0.00  0.00    +0.157 HD
ATOM     14  C   LIG    1      -37.097  73.443  27.112  0.00  0.00    +0.251 C 
ATOM     15  O   LIG    1      -37.938  73.019  27.877  0.00  0.00    -0.270 OA
BRANCH  14  16
ATOM     16  C   LIG    1      -35.772  73.927  27.595  0.00  0.00    +0.056 A 
ATOM     17  C   LIG    1      -34.789  73.075  28.099  0.00  0.00    +0.056 A 
ATOM     18 CL   LIG    1      -34.935  71.354  28.154  0.00  0.00    -0.083 Cl
ATOM     19  C   LIG    1      -33.595  73.601  28.578  0.00  0.00    +0.059 A 
ATOM     20  C   LIG    1      -33.364  74.972  28.537  0.00  0.00    +0.134 A 
ATOM     21  F   LIG    1      -32.213  75.395  29.074  0.00  0.00    -0.205 F 
ATOM     22  C   LIG    1      -34.287  75.871  27.986  0.00  0.00    +0.039 A 
ATOM     23  C   LIG    1      -35.509  75.317  27.527  0.00  0.00    +0.027 A 
BRANCH  22  24
ATOM     24  C   LIG    1      -34.012  77.322  27.867  0.00  0.00    +0.109 A 
ATOM     25  C   LIG    1      -32.972  77.860  27.100  0.00  0.00    +0.149 A 
ATOM     26  F   LIG    1      -32.122  77.091  26.408  0.00  0.00    -0.203 F 
ATOM     27  C   LIG    1      -32.826  79.238  26.990  0.00  0.00    +0.042 A 
ATOM     28  C   LIG    1      -33.722  80.068  27.647  0.00  0.00    +0.023 A 
ATOM     29  C   LIG    1      -34.727  79.476  28.394  0.00  0.00    +0.111 A 
ATOM     30  N   LIG    1      -34.893  78.135  28.518  0.00  0.00    -0.252 NA
ENDBRANCH  22  24
ENDBRANCH  14  16
ENDBRANCH   4  12
BRANCH   1  31
ATOM     31  C   LIG    1      -41.604  73.463  23.232  0.00  0.00    +0.236 C 
ATOM     32  N   LIG    1      -42.290  72.606  22.574  0.00  0.00    -0.244 NA
BRANCH  31  33
ATOM     33  O   LIG    1      -41.879  74.778  23.337  0.00  0.00    -0.491 OA
ATOM     34  H   LIG    1      -41.077  75.313  23.402  0.00  0.00    +0.294 HD
ENDBRANCH  31  33
BRANCH  32  35
ATOM     35  C   LIG    1      -43.516  72.966  21.884  0.00  0.00    +0.183 C 
BRANCH  35  36
ATOM     36  C   LIG    1      -43.656  72.199  20.617  0.00  0.00    +0.011 A 
ATOM     37  C   LIG    1      -44.591  72.332  19.608  0.00  0.00    +0.110 A 
ATOM     38  N   LIG    1      -44.286  71.394  18.667  0.00  0.00    -0.284 N 
ATOM     39  H   LIG    1      -44.763  71.204  17.792  0.00  0.00    +0.188 HD
ATOM     40  N   LIG    1      -43.217  70.651  18.988  0.00  0.00    -0.182 NA
ATOM     41  C   LIG    1      -42.824  71.150  20.161  0.00  0.00    +0.139 A 
ENDBRANCH  35  36
ENDBRANCH  32  35
ENDBRANCH   1  31
TORSDOF 8
ENDMDL
MODEL 4
REMARK VINA RESULT:      -6.4      3.370      4.642
REMARK  Name = pdb/CHEMBL3977553.pdb
REMARK                            x       y       z     vdW  Elec       q    Type
REMARK                         _______ _______ _______ _____ _____    ______ ____
ROOT
ATOM      1  C   LIG    1      -35.933  71.730  27.043  0.00  0.00    +0.149 A 
ATOM      2  N   LIG    1      -36.977  72.489  26.681  0.00  0.00    -0.160 NA
ATOM      3  N   LIG    1      -37.425  71.956  25.512  0.00  0.00    -0.218 N 
ATOM      4  C   LIG    1      -36.618  70.888  25.094  0.00  0.00    +0.129 A 
ATOM      5  C   LIG    1      -35.691  70.713  26.090  0.00  0.00    +0.078 A 
ENDROOT
BRANCH   3   6
ATOM      6  C   LIG    1      -38.573  72.516  24.875  0.00  0.00    +0.067 A 
ATOM      7  C   LIG    1      -39.599  71.709  24.365  0.00  0.00    +0.028 A 
ATOM      8  C   LIG    1      -40.721  72.290  23.766  0.00  0.00    +0.002 A 
ATOM      9  C   LIG    1      -40.834  73.674  23.679  0.00  0.00    +0.000 A 
ATOM     10  C   LIG    1      -39.823  74.486  24.186  0.00  0.00    +0.002 A 
ATOM     11  C   LIG    1      -38.700  73.913  24.792  0.00  0.00    +0.028 A 
ENDBRANCH   3   6
BRANCH   4  12
ATOM     12  N   LIG    1      -36.673  70.196  23.884  0.00  0.00    -0.266 N 
ATOM     13  H   LIG    1      -36.133  70.575  23.118  0.00  0.00    +0.157 HD
ATOM     14  C   LIG    1      -37.308  68.919  23.682  0.00  0.00    +0.251 C 
ATOM     15  O   LIG    1      -37.883  68.340  24.579  0.00  0.00    -0.270 OA
BRANCH  14  16
ATOM     16  C   LIG    1      -37.261  68.366  22.297  0.00  0.00    +0.056 A 
ATOM     17  C   LIG    1      -38.273  68.577  21.360  0.00  0.00    +0.056 A 
ATOM     18 CL   LIG    1      -39.662  69.565  21.641  0.00  0.00    -0.083 Cl
ATOM     19  C   LIG    1      -38.186  67.991  20.103  0.00  0.00    +0.059 A 
ATOM     20  C   LIG    1      -37.084  67.212  19.765  0.00  0.00    +0.134 A 
ATOM     21  F   LIG    1      -37.113  66.638  18.556  0.00  0.00    -0.205 F 
ATOM     22  C   LIG    1      -36.009  67.015  20.641  0.00  0.00    +0.039 A 
ATOM     23  C   LIG    1      -36.129  67.601  21.927  0.00  0.00    +0.027 A 
BRANCH  22  24
ATOM     24  C   LIG    1      -34.797  66.254  20.257  0.00  0.00    +0.109 A 
ATOM     25  C   LIG    1      -34.798  64.890  19.941  0.00  0.00    +0.149 A 
ATOM     26  F   LIG    1      -35.914  64.150  19.972  0.00  0.00    -0.203 F 
ATOM     27  C   LIG    1      -33.627  64.268  19.526  0.00  0.00    +0.042 A 
ATOM     28  C   LIG    1      -32.463  65.015  19.427  0.00  0.00    +0.023 A 
ATOM     29  C   LIG    1      -32.524  66.359  19.757  0.00  0.00    +0.111 A 
ATOM     30  N   LIG    1      -33.653  66.992  20.165  0.00  0.00    -0.252 NA
ENDBRANCH  22  24
ENDBRANCH  14  16
ENDBRANCH   4  12
BRANCH   1  31
ATOM     31  C   LIG    1      -35.135  71.961  28.244  0.00  0.00    +0.236 C 
ATOM     32  N   LIG    1      -34.169  72.798  28.179  0.00  0.00    -0.244 NA
BRANCH  31  33
ATOM     33  O   LIG    1      -35.466  71.221  29.321  0.00  0.00    -0.491 OA
ATOM     34  H   LIG    1      -36.131  71.656  29.871  0.00  0.00    +0.294 HD
ENDBRANCH  31  33
BRANCH  32  35
ATOM     35  C   LIG    1      -33.323  73.087  29.324  0.00  0.00    +0.183 C 
BRANCH  35  36
ATOM     36  C   LIG    1      -32.672  74.417  29.180  0.00  0.00    +0.011 A 
ATOM     37  C   LIG    1      -33.125  75.551  28.532  0.00  0.00    +0.110 A 
ATOM     38  N   LIG    1      -32.161  76.501  28.689  0.00  0.00    -0.284 N 
ATOM     39  H   LIG    1      -32.156  77.455  28.342  0.00  0.00    +0.188 HD
ATOM     40  N   LIG    1      -31.103  76.071  29.392  0.00  0.00    -0.182 NA
ATOM     41  C   LIG    1      -31.420  74.813  29.705  0.00  0.00    +0.139 A 
ENDBRANCH  35  36
ENDBRANCH  32  35
ENDBRANCH   1  31
TORSDOF 8
ENDMDL
MODEL 5
REMARK VINA RESULT:      -6.4      3.350      5.434
REMARK  Name = pdb/CHEMBL3977553.pdb
REMARK                            x       y       z     vdW  Elec       q    Type
REMARK                         _______ _______ _______ _____ _____    ______ ____
ROOT
ATOM      1  C   LIG    1      -37.457  79.808  27.569  0.00  0.00    +0.149 A 
ATOM      2  N   LIG    1      -36.424  79.125  28.083  0.00  0.00    -0.160 NA
ATOM      3  N   LIG    1      -36.560  77.857  27.613  0.00  0.00    -0.218 N 
ATOM      4  C   LIG    1      -37.725  77.716  26.846  0.00  0.00    +0.129 A 
ATOM      5  C   LIG    1      -38.278  78.970  26.780  0.00  0.00    +0.078 A 
ENDROOT
BRANCH   3   6
ATOM      6  C   LIG    1      -35.580  76.872  27.946  0.00  0.00    +0.067 A 
ATOM      7  C   LIG    1      -34.351  76.800  27.276  0.00  0.00    +0.028 A 
ATOM      8  C   LIG    1      -33.405  75.838  27.641  0.00  0.00    +0.002 A 
ATOM      9  C   LIG    1      -33.671  74.948  28.678  0.00  0.00    +0.000 A 
ATOM     10  C   LIG    1      -34.887  75.013  29.353  0.00  0.00    +0.002 A 
ATOM     11  C   LIG    1      -35.836  75.976  28.997  0.00  0.00    +0.028 A 
ENDBRANCH   3   6
BRANCH   4  12
ATOM     12  N   LIG    1      -38.273  76.542  26.328  0.00  0.00    -0.266 N 
ATOM     13  H   LIG    1      -39.036  76.129  26.845  0.00  0.00    +0.157 HD
ATOM     14  C   LIG    1      -37.943  75.960  25.051  0.00  0.00    +0.251 C 
ATOM     15  O   LIG    1      -37.116  76.456  24.316  0.00  0.00    -0.270 OA
BRANCH  14  16
ATOM     16  C   LIG    1      -38.639  74.688  24.702  0.00  0.00    +0.056 A 
ATOM     17  C   LIG    1      -39.904  74.650  24.115  0.00  0.00    +0.056 A 
ATOM     18 CL   LIG    1      -40.792  76.053  23.638  0.00  0.00    -0.083 Cl
ATOM     19  C   LIG    1      -40.514  73.427  23.861  0.00  0.00    +0.059 A 
ATOM     20  C   LIG    1      -39.861  72.238  24.171  0.00  0.00    +0.134 A 
ATOM     21  F   LIG    1      -40.547  71.111  23.949  0.00  0.00    -0.205 F 
ATOM     22  C   LIG    1      -38.566  72.212  24.704  0.00  0.00    +0.039 A 
ATOM     23  C   LIG    1      -37.972  73.470  24.978  0.00  0.00    +0.027 A 
BRANCH  22  24
ATOM     24  C   LIG    1      -37.835  70.949  24.960  0.00  0.00    +0.109 A 
ATOM     25  C   LIG    1      -37.597  69.973  23.985  0.00  0.00    +0.149 A 
ATOM     26  F   LIG    1      -38.027  70.102  22.723  0.00  0.00    -0.203 F 
ATOM     27  C   LIG    1      -36.844  68.846  24.294  0.00  0.00    +0.042 A 
ATOM     28  C   LIG    1      -36.333  68.704  25.575  0.00  0.00    +0.023 A 
ATOM     29  C   LIG    1      -36.606  69.702  26.497  0.00  0.00    +0.111 A 
ATOM     30  N   LIG    1      -37.338  70.811  26.222  0.00  0.00    -0.252 NA
ENDBRANCH  22  24
ENDBRANCH  14  16
ENDBRANCH   4  12
BRANCH   1  31
ATOM     31  C   LIG    1      -37.711  81.222  27.832  0.00  0.00    +0.236 C 
ATOM     32  N   LIG    1      -36.725  81.961  28.179  0.00  0.00    -0.244 NA
BRANCH  31  33
ATOM     33  O   LIG    1      -38.995  81.618  27.731  0.00  0.00    -0.491 OA
ATOM     34  H   LIG    1      -39.452  81.185  26.999  0.00  0.00    +0.294 HD
ENDBRANCH  31  33
BRANCH  32  35
ATOM     35  C   LIG    1      -36.887  83.377  28.463  0.00  0.00    +0.183 C 
BRANCH  35  36
ATOM     36  C   LIG    1      -36.135  84.204  27.480  0.00  0.00    +0.011 A 
ATOM     37  C   LIG    1      -35.295  85.279  27.697  0.00  0.00    +0.110 A 
ATOM     38  N   LIG    1      -34.858  85.686  26.472  0.00  0.00    -0.284 N 
ATOM     39  H   LIG    1      -34.228  86.451  26.251  0.00  0.00    +0.188 HD
ATOM     40  N   LIG    1      -35.354  84.955  25.463  0.00  0.00    -0.182 NA
ATOM     41  C   LIG    1      -36.115  84.045  26.075  0.00  0.00    +0.139 A 
ENDBRANCH  35  36
ENDBRANCH  32  35
ENDBRANCH   1  31
TORSDOF 8
ENDMDL
MODEL 6
REMARK VINA RESULT:      -6.4     17.940     20.179
REMARK  Name = pdb/CHEMBL3977553.pdb
REMARK                            x       y       z     vdW  Elec       q    Type
REMARK                         _______ _______ _______ _____ _____    ______ ____
ROOT
ATOM      1  C   LIG    1      -21.980  81.918  15.300  0.00  0.00    +0.149 A 
ATOM      2  N   LIG    1      -20.713  81.510  15.457  0.00  0.00    -0.160 NA
ATOM      3  N   LIG    1      -20.762  80.152  15.414  0.00  0.00    -0.218 N 
ATOM      4  C   LIG    1      -22.081  79.690  15.293  0.00  0.00    +0.129 A 
ATOM      5  C   LIG    1      -22.857  80.816  15.176  0.00  0.00    +0.078 A 
ENDROOT
BRANCH   3   6
ATOM      6  C   LIG    1      -19.553  79.398  15.510  0.00  0.00    +0.067 A 
ATOM      7  C   LIG    1      -19.227  78.673  16.665  0.00  0.00    +0.028 A 
ATOM      8  C   LIG    1      -18.045  77.928  16.719  0.00  0.00    +0.002 A 
ATOM      9  C   LIG    1      -17.186  77.892  15.624  0.00  0.00    +0.000 A 
ATOM     10  C   LIG    1      -17.502  78.605  14.470  0.00  0.00    +0.002 A 
ATOM     11  C   LIG    1      -18.685  79.348  14.407  0.00  0.00    +0.028 A 
ENDBRANCH   3   6
BRANCH   4  12
ATOM     12  N   LIG    1      -22.538  78.374  15.365  0.00  0.00    -0.266 N 
ATOM     13  H   LIG    1      -23.119  78.137  16.157  0.00  0.00    +0.157 HD
ATOM     14  C   LIG    1      -22.374  77.377  14.338  0.00  0.00    +0.251 C 
ATOM     15  O   LIG    1      -21.784  77.612  13.305  0.00  0.00    -0.270 OA
BRANCH  14  16
ATOM     16  C   LIG    1      -22.928  76.024  14.633  0.00  0.00    +0.056 A 
ATOM     17  C   LIG    1      -24.062  75.513  14.000  0.00  0.00    +0.056 A 
ATOM     18 CL   LIG    1      -24.921  76.330  12.743  0.00  0.00    -0.083 Cl
ATOM     19  C   LIG    1      -24.552  74.263  14.360  0.00  0.00    +0.059 A 
ATOM     20  C   LIG    1      -23.905  73.507  15.332  0.00  0.00    +0.134 A 
ATOM     21  F   LIG    1      -24.480  72.343  15.658  0.00  0.00    -0.205 F 
ATOM     22  C   LIG    1      -22.728  73.941  15.958  0.00  0.00    +0.039 A 
ATOM     23  C   LIG    1      -22.260  75.229  15.595  0.00  0.00    +0.027 A 
BRANCH  22  24
ATOM     24  C   LIG    1      -21.991  73.105  16.935  0.00  0.00    +0.109 A 
ATOM     25  C   LIG    1      -22.277  73.069  18.305  0.00  0.00    +0.149 A 
ATOM     26  F   LIG    1      -23.250  73.809  18.852  0.00  0.00    -0.203 F 
ATOM     27  C   LIG    1      -21.579  72.206  19.141  0.00  0.00    +0.042 A 
ATOM     28  C   LIG    1      -20.602  71.384  18.601  0.00  0.00    +0.023 A 
ATOM     29  C   LIG    1      -20.362  71.468  17.239  0.00  0.00    +0.111 A 
ATOM     30  N   LIG    1      -21.028  72.301  16.400  0.00  0.00    -0.252 NA
ENDBRANCH  22  24
ENDBRANCH  14  16
ENDBRANCH   4  12
BRANCH   1  31
ATOM     31  C   LIG    1      -22.390  83.320  15.300  0.00  0.00    +0.236 C 
ATOM     32  N   LIG    1      -22.356  83.962  14.193  0.00  0.00    -0.244 NA
BRANCH  31  33
ATOM     33  O   LIG    1      -22.729  83.833  16.499  0.00  0.00    -0.491 OA
ATOM     34  H   LIG    1      -23.573  83.486  16.818  0.00  0.00    +0.294 HD
ENDBRANCH  31  33
BRANCH  32  35
ATOM     35  C   LIG    1      -22.744  85.359  14.102  0.00  0.00    +0.183 C 
BRANCH  35  36
ATOM     36  C   LIG    1      -21.609  86.249  14.467  0.00  0.00    +0.011 A 
ATOM     37  C   LIG    1      -21.476  87.110  15.540  0.00  0.00    +0.110 A 
ATOM     38  N   LIG    1      -20.251  87.695  15.423  0.00  0.00    -0.284 N 
ATOM     39  H   LIG    1      -19.822  88.382  16.034  0.00  0.00    +0.188 HD
ATOM     40  N   LIG    1      -19.569  87.281  14.345  0.00  0.00    -0.182 NA
ATOM     41  C   LIG    1      -20.384  86.392  13.775  0.00  0.00    +0.139 A 
ENDBRANCH  35  36
ENDBRANCH  32  35
ENDBRANCH   1  31
TORSDOF 8
ENDMDL
MODEL 7
REMARK VINA RESULT:      -6.4      4.828     10.243
REMARK  Name = pdb/CHEMBL3977553.pdb
REMARK                            x       y       z     vdW  Elec       q    Type
REMARK                         _______ _______ _______ _____ _____    ______ ____
ROOT
ATOM      1  C   LIG    1      -36.143  69.109  25.453  0.00  0.00    +0.149 A 
ATOM      2  N   LIG    1      -37.170  69.971  25.490  0.00  0.00    -0.160 NA
ATOM      3  N   LIG    1      -36.638  71.149  25.912  0.00  0.00    -0.218 N 
ATOM      4  C   LIG    1      -35.273  71.018  26.209  0.00  0.00    +0.129 A 
ATOM      5  C   LIG    1      -34.945  69.728  25.875  0.00  0.00    +0.078 A 
ENDROOT
BRANCH   3   6
ATOM      6  C   LIG    1      -37.473  72.302  26.019  0.00  0.00    +0.067 A 
ATOM      7  C   LIG    1      -37.846  72.829  27.263  0.00  0.00    +0.028 A 
ATOM      8  C   LIG    1      -38.647  73.972  27.333  0.00  0.00    +0.002 A 
ATOM      9  C   LIG    1      -39.074  74.604  26.169  0.00  0.00    +0.000 A 
ATOM     10  C   LIG    1      -38.707  74.091  24.927  0.00  0.00    +0.002 A 
ATOM     11  C   LIG    1      -37.901  72.951  24.849  0.00  0.00    +0.028 A 
ENDBRANCH   3   6
BRANCH   4  12
ATOM     12  N   LIG    1      -34.432  71.959  26.802  0.00  0.00    -0.266 N 
ATOM     13  H   LIG    1      -33.925  72.572  26.179  0.00  0.00    +0.157 HD
ATOM     14  C   LIG    1      -34.343  72.225  28.215  0.00  0.00    +0.251 C 
ATOM     15  O   LIG    1      -35.003  71.610  29.026  0.00  0.00    -0.270 OA
BRANCH  14  16
ATOM     16  C   LIG    1      -33.362  73.267  28.634  0.00  0.00    +0.056 A 
ATOM     17  C   LIG    1      -32.222  72.979  29.387  0.00  0.00    +0.056 A 
ATOM     18 CL   LIG    1      -31.752  71.386  29.860  0.00  0.00    -0.083 Cl
ATOM     19  C   LIG    1      -31.376  74.008  29.783  0.00  0.00    +0.059 A 
ATOM     20  C   LIG    1      -31.646  75.322  29.416  0.00  0.00    +0.134 A 
ATOM     21  F   LIG    1      -30.811  76.254  29.892  0.00  0.00    -0.205 F 
ATOM     22  C   LIG    1      -32.740  75.665  28.609  0.00  0.00    +0.039 A 
ATOM     23  C   LIG    1      -33.604  74.605  28.237  0.00  0.00    +0.027 A 
BRANCH  22  24
ATOM     24  C   LIG    1      -32.986  77.051  28.148  0.00  0.00    +0.109 A 
ATOM     25  C   LIG    1      -33.794  77.970  28.829  0.00  0.00    +0.149 A 
ATOM     26  F   LIG    1      -34.429  77.658  29.967  0.00  0.00    -0.203 F 
ATOM     27  C   LIG    1      -33.918  79.272  28.361  0.00  0.00    +0.042 A 
ATOM     28  C   LIG    1      -33.230  79.648  27.217  0.00  0.00    +0.023 A 
ATOM     29  C   LIG    1      -32.450  78.694  26.585  0.00  0.00    +0.111 A 
ATOM     30  N   LIG    1      -32.312  77.415  27.020  0.00  0.00    -0.252 NA
ENDBRANCH  22  24
ENDBRANCH  14  16
ENDBRANCH   4  12
BRANCH   1  31
ATOM     31  C   LIG    1      -36.271  67.707  25.064  0.00  0.00    +0.236 C 
ATOM     32  N   LIG    1      -35.709  67.323  23.980  0.00  0.00    -0.244 NA
BRANCH  31  33
ATOM     33  O   LIG    1      -37.025  66.938  25.875  0.00  0.00    -0.491 OA
ATOM     34  H   LIG    1      -36.494  66.482  26.541  0.00  0.00    +0.294 HD
ENDBRANCH  31  33
BRANCH  32  35
ATOM     35  C   LIG    1      -35.787  65.948  23.517  0.00  0.00    +0.183 C 
BRANCH  35  36
ATOM     36  C   LIG    1      -34.944  65.748  22.308  0.00  0.00    +0.011 A 
ATOM     37  C   LIG    1      -34.753  64.609  21.548  0.00  0.00    +0.110 A 
ATOM     38  N   LIG    1      -33.889  64.946  20.550  0.00  0.00    -0.284 N 
ATOM     39  H   LIG    1      -33.525  64.356  19.808  0.00  0.00    +0.188 HD
ATOM     40  N   LIG    1      -33.496  66.227  20.601  0.00  0.00    -0.182 NA
ATOM     41  C   LIG    1      -34.148  66.718  21.656  0.00  0.00    +0.139 A 
ENDBRANCH  35  36
ENDBRANCH  32  35
ENDBRANCH   1  31
TORSDOF 8
ENDMDL
MODEL 8
REMARK VINA RESULT:      -6.4     16.782     21.706
REMARK  Name = pdb/CHEMBL3977553.pdb
REMARK                            x       y       z     vdW  Elec       q    Type
REMARK                         _______ _______ _______ _____ _____    ______ ____
ROOT
ATOM      1  C   LIG    1      -21.732  79.716  34.623  0.00  0.00    +0.149 A 
ATOM      2  N   LIG    1      -20.760  80.268  35.364  0.00  0.00    -0.160 NA
ATOM      3  N   LIG    1      -21.383  81.183  36.153  0.00  0.00    -0.218 N 
ATOM      4  C   LIG    1      -22.753  81.260  35.866  0.00  0.00    +0.129 A 
ATOM      5  C   LIG    1      -22.987  80.294  34.920  0.00  0.00    +0.078 A 
ENDROOT
BRANCH   3   6
ATOM      6  C   LIG    1      -20.623  81.927  37.106  0.00  0.00    +0.067 A 
ATOM      7  C   LIG    1      -20.662  83.328  37.148  0.00  0.00    +0.028 A 
ATOM      8  C   LIG    1      -19.922  84.025  38.107  0.00  0.00    +0.002 A 
ATOM      9  C   LIG    1      -19.147  83.336  39.035  0.00  0.00    +0.000 A 
ATOM     10  C   LIG    1      -19.103  81.944  39.006  0.00  0.00    +0.002 A 
ATOM     11  C   LIG    1      -19.845  81.239  38.052  0.00  0.00    +0.028 A 
ENDBRANCH   3   6
BRANCH   4  12
ATOM     12  N   LIG    1      -23.682  82.177  36.360  0.00  0.00    -0.266 N 
ATOM     13  H   LIG    1      -23.690  83.091  35.931  0.00  0.00    +0.157 HD
ATOM     14  C   LIG    1      -24.718  81.882  37.316  0.00  0.00    +0.251 C 
ATOM     15  O   LIG    1      -24.850  80.776  37.798  0.00  0.00    -0.270 OA
BRANCH  14  16
ATOM     16  C   LIG    1      -25.593  83.020  37.719  0.00  0.00    +0.056 A 
ATOM     17  C   LIG    1      -25.789  83.396  39.048  0.00  0.00    +0.056 A 
ATOM     18 CL   LIG    1      -24.989  82.658  40.390  0.00  0.00    -0.083 Cl
ATOM     19  C   LIG    1      -26.657  84.437  39.354  0.00  0.00    +0.059 A 
ATOM     20  C   LIG    1      -27.317  85.123  38.339  0.00  0.00    +0.134 A 
ATOM     21  F   LIG    1      -28.179  86.070  38.728  0.00  0.00    -0.205 F 
ATOM     22  C   LIG    1      -27.114  84.832  36.983  0.00  0.00    +0.039 A 
ATOM     23  C   LIG    1      -26.244  83.751  36.695  0.00  0.00    +0.027 A 
BRANCH  22  24
ATOM     24  C   LIG    1      -27.751  85.613  35.897  0.00  0.00    +0.109 A 
ATOM     25  C   LIG    1      -29.084  85.453  35.498  0.00  0.00    +0.149 A 
ATOM     26  F   LIG    1      -29.899  84.558  36.071  0.00  0.00    -0.203 F 
ATOM     27  C   LIG    1      -29.621  86.274  34.514  0.00  0.00    +0.042 A 
ATOM     28  C   LIG    1      -28.823  87.250  33.937  0.00  0.00    +0.023 A 
ATOM     29  C   LIG    1      -27.512  87.357  34.371  0.00  0.00    +0.111 A 
ATOM     30  N   LIG    1      -26.962  86.569  35.329  0.00  0.00    -0.252 NA
ENDBRANCH  22  24
ENDBRANCH  14  16
ENDBRANCH   4  12
BRANCH   1  31
ATOM     31  C   LIG    1      -21.501  78.683  33.616  0.00  0.00    +0.236 C 
ATOM     32  N   LIG    1      -22.400  77.788  33.448  0.00  0.00    -0.244 NA
BRANCH  31  33
ATOM     33  O   LIG    1      -20.317  78.740  32.976  0.00  0.00    -0.491 OA
ATOM     34  H   LIG    1      -19.584  78.459  33.540  0.00  0.00    +0.294 HD
ENDBRANCH  31  33
BRANCH  32  35
ATOM     35  C   LIG    1      -22.253  76.723  32.471  0.00  0.00    +0.183 C 
BRANCH  35  36
ATOM     36  C   LIG    1      -23.031  77.023  31.238  0.00  0.00    +0.011 A 
ATOM     37  C   LIG    1      -22.595  77.507  30.020  0.00  0.00    +0.110 A 
ATOM     38  N   LIG    1      -23.696  77.608  29.223  0.00  0.00    -0.284 N 
ATOM     39  H   LIG    1      -23.749  77.930  28.262  0.00  0.00    +0.188 HD
ATOM     40  N   LIG    1      -24.827  77.226  29.834  0.00  0.00    -0.182 NA
ATOM     41  C   LIG    1      -24.422  76.855  31.050  0.00  0.00    +0.139 A 
ENDBRANCH  35  36
ENDBRANCH  32  35
ENDBRANCH   1  31
TORSDOF 8
ENDMDL
MODEL 9
REMARK VINA RESULT:      -6.3     14.065     18.295
REMARK  Name = pdb/CHEMBL3977553.pdb
REMARK                            x       y       z     vdW  Elec       q    Type
REMARK                         _______ _______ _______ _____ _____    ______ ____
ROOT
ATOM      1  C   LIG    1      -25.849  71.908  30.840  0.00  0.00    +0.149 A 
ATOM      2  N   LIG    1      -26.741  72.655  31.507  0.00  0.00    -0.160 NA
ATOM      3  N   LIG    1      -26.098  73.818  31.793  0.00  0.00    -0.218 N 
ATOM      4  C   LIG    1      -24.764  73.786  31.360  0.00  0.00    +0.129 A 
ATOM      5  C   LIG    1      -24.614  72.585  30.713  0.00  0.00    +0.078 A 
ENDROOT
BRANCH   3   6
ATOM      6  C   LIG    1      -26.796  74.862  32.472  0.00  0.00    +0.067 A 
ATOM      7  C   LIG    1      -26.559  75.150  33.823  0.00  0.00    +0.028 A 
ATOM      8  C   LIG    1      -27.244  76.193  34.452  0.00  0.00    +0.002 A 
ATOM      9  C   LIG    1      -28.161  76.962  33.741  0.00  0.00    +0.000 A 
ATOM     10  C   LIG    1      -28.403  76.687  32.398  0.00  0.00    +0.002 A 
ATOM     11  C   LIG    1      -27.717  75.649  31.760  0.00  0.00    +0.028 A 
ENDBRANCH   3   6
BRANCH   4  12
ATOM     12  N   LIG    1      -23.761  74.725  31.605  0.00  0.00    -0.266 N 
ATOM     13  H   LIG    1      -22.963  74.409  32.137  0.00  0.00    +0.157 HD
ATOM     14  C   LIG    1      -23.704  76.049  31.041  0.00  0.00    +0.251 C 
ATOM     15  O   LIG    1      -24.568  76.469  30.301  0.00  0.00    -0.270 OA
BRANCH  14  16
ATOM     16  C   LIG    1      -22.547  76.896  31.453  0.00  0.00    +0.056 A 
ATOM     17  C   LIG    1      -21.439  77.119  30.634  0.00  0.00    +0.056 A 
ATOM     18 CL   LIG    1      -21.294  76.525  29.018  0.00  0.00    -0.083 Cl
ATOM     19  C   LIG    1      -20.374  77.880  31.102  0.00  0.00    +0.059 A 
ATOM     20  C   LIG    1      -20.414  78.439  32.375  0.00  0.00    +0.134 A 
ATOM     21  F   LIG    1      -19.321  79.105  32.766  0.00  0.00    -0.205 F 
ATOM     22  C   LIG    1      -21.525  78.300  33.219  0.00  0.00    +0.039 A 
ATOM     23  C   LIG    1      -22.590  77.500  32.732  0.00  0.00    +0.027 A 
BRANCH  22  24
ATOM     24  C   LIG    1      -21.607  78.960  34.543  0.00  0.00    +0.109 A 
ATOM     25  C   LIG    1      -22.571  79.917  34.882  0.00  0.00    +0.149 A 
ATOM     26  F   LIG    1      -23.507  80.327  34.016  0.00  0.00    -0.203 F 
ATOM     27  C   LIG    1      -22.616  80.438  36.170  0.00  0.00    +0.042 A 
ATOM     28  C   LIG    1      -21.698  79.996  37.110  0.00  0.00    +0.023 A 
ATOM     29  C   LIG    1      -20.766  79.051  36.714  0.00  0.00    +0.111 A 
ATOM     30  N   LIG    1      -20.699  78.526  35.464  0.00  0.00    -0.252 NA
ENDBRANCH  22  24
ENDBRANCH  14  16
ENDBRANCH   4  12
BRANCH   1  31
ATOM     31  C   LIG    1      -26.119  70.559  30.351  0.00  0.00    +0.236 C 
ATOM     32  N   LIG    1      -25.239  69.652  30.553  0.00  0.00    -0.244 NA
BRANCH  31  33
ATOM     33  O   LIG    1      -27.275  70.399  29.676  0.00  0.00    -0.491 OA
ATOM     34  H   LIG    1      -27.968  70.013  30.228  0.00  0.00    +0.294 HD
ENDBRANCH  31  33
BRANCH  32  35
ATOM     35  C   LIG    1      -25.424  68.285  30.099  0.00  0.00    +0.183 C 
BRANCH  35  36
ATOM     36  C   LIG    1      -24.484  67.962  28.991  0.00  0.00    +0.011 A 
ATOM     37  C   LIG    1      -24.040  68.762  27.955  0.00  0.00    +0.110 A 
ATOM     38  N   LIG    1      -23.192  67.999  27.209  0.00  0.00    -0.284 N 
ATOM     39  H   LIG    1      -22.683  68.261  26.371  0.00  0.00    +0.188 HD
ATOM     40  N   LIG    1      -23.050  66.752  27.680  0.00  0.00    -0.182 NA
ATOM     41  C   LIG    1      -23.819  66.734  28.770  0.00  0.00    +0.139 A 
ENDBRANCH  35  36
ENDBRANCH  32  35
ENDBRANCH   1  31
TORSDOF 8
ENDMDL
