MODEL 1
REMARK VINA RESULT:      -6.3      0.000      0.000
REMARK  Name = pdb/CHEMBL3673482.pdb
REMARK                            x       y       z     vdW  Elec       q    Type
REMARK                         _______ _______ _______ _____ _____    ______ ____
ROOT
ATOM      1  C   LIG    1      -34.923  70.529  28.646  0.00  0.00    +0.161 C 
ENDROOT
BRANCH   1   2
ATOM      2  N   LIG    1      -35.356  70.735  27.271  0.00  0.00    -0.293 N 
ATOM      3  C   LIG    1      -36.396  71.516  26.825  0.00  0.00    +0.162 A 
ATOM      4  N   LIG    1      -37.173  72.356  27.509  0.00  0.00    -0.235 NA
ATOM      5  C   LIG    1      -38.113  72.974  26.764  0.00  0.00    +0.121 A 
ATOM      6  C   LIG    1      -38.348  72.802  25.391  0.00  0.00    +0.002 A 
ATOM      7  C   LIG    1      -37.498  71.881  24.744  0.00  0.00    +0.041 A 
ATOM      8  C   LIG    1      -36.483  71.242  25.466  0.00  0.00    +0.110 A 
ATOM      9  N   LIG    1      -35.504  70.373  25.069  0.00  0.00    -0.213 NA
ATOM     10  C   LIG    1      -34.788  70.127  26.176  0.00  0.00    +0.195 A 
BRANCH   6  11
ATOM     11  C   LIG    1      -39.406  73.563  24.670  0.00  0.00    -0.016 A 
ATOM     12  C   LIG    1      -40.468  72.922  23.993  0.00  0.00    +0.011 A 
ATOM     13  C   LIG    1      -41.470  73.643  23.335  0.00  0.00    +0.039 A 
ATOM     14  C   LIG    1      -41.429  75.026  23.335  0.00  0.00    +0.123 A 
ATOM     15  F   LIG    1      -42.385  75.719  22.707  0.00  0.00    -0.205 F 
ATOM     16  C   LIG    1      -40.406  75.699  23.981  0.00  0.00    +0.039 A 
ATOM     17  C   LIG    1      -39.409  74.973  24.640  0.00  0.00    +0.011 A 
ENDBRANCH   6  11
BRANCH  10  18
ATOM     18  N   LIG    1      -33.686  69.395  26.207  0.00  0.00    -0.329 N 
ATOM     19  H   LIG    1      -32.916  69.797  25.679  0.00  0.00    +0.145 HD
ATOM     20  H   LIG    1      -33.342  69.069  27.119  0.00  0.00    +0.145 HD
ENDBRANCH  10  18
ENDBRANCH   1   2
BRANCH   1  24
ATOM     21  C   LIG    1      -32.555  73.937  29.894  0.00  0.00    +0.162 A 
ATOM     22  C   LIG    1      -31.925  72.722  29.502  0.00  0.00    +0.162 A 
ATOM     23  C   LIG    1      -32.758  71.673  29.074  0.00  0.00    +0.054 A 
ATOM     24  C   LIG    1      -34.141  71.678  29.212  0.00  0.00    -0.024 A 
ATOM     25  C   LIG    1      -34.739  72.815  29.711  0.00  0.00    +0.009 A 
ATOM     26  C   LIG    1      -33.958  73.930  29.988  0.00  0.00    +0.050 A 
BRANCH  22  27
ATOM     27  O   LIG    1      -30.558  72.498  29.524  0.00  0.00    -0.491 OA
ATOM     28  C   LIG    1      -30.145  71.101  29.564  0.00  0.00    +0.277 C 
ENDBRANCH  22  27
BRANCH  21  29
ATOM     29  O   LIG    1      -31.888  75.110  30.225  0.00  0.00    -0.484 OA
BRANCH  29  30
ATOM     30  C   LIG    1      -31.488  75.995  29.109  0.00  0.00    +0.266 C 
BRANCH  30  34
ATOM     31  C   LIG    1      -34.122  79.113  27.743  0.00  0.00    +0.214 A 
ATOM     32  N   LIG    1      -33.153  78.675  26.913  0.00  0.00    -0.221 NA
ATOM     33  C   LIG    1      -32.349  77.680  27.382  0.00  0.00    +0.121 A 
ATOM     34  C   LIG    1      -32.445  77.103  28.656  0.00  0.00    +0.008 A 
ATOM     35  C   LIG    1      -33.496  77.566  29.450  0.00  0.00    +0.013 A 
ATOM     36  C   LIG    1      -34.344  78.576  28.998  0.00  0.00    +0.067 A 
BRANCH  31  38
ATOM     37  C   LIG    1      -34.879  81.233  28.368  0.00  0.00    +0.279 C 
ATOM     38  O   LIG    1      -34.904  80.197  27.394  0.00  0.00    -0.480 OA
ENDBRANCH  31  38
ENDBRANCH  30  34
ENDBRANCH  29  30
ENDBRANCH  21  29
ENDBRANCH   1  24
TORSDOF 9
ENDMDL
MODEL 2
REMARK VINA RESULT:      -6.3     20.088     24.083
REMARK  Name = pdb/CHEMBL3673482.pdb
REMARK                            x       y       z     vdW  Elec       q    Type
REMARK                         _______ _______ _______ _____ _____    ______ ____
ROOT
ATOM      1  C   LIG    1      -21.900  88.229  11.231  0.00  0.00    +0.161 C 
ENDROOT
BRANCH   1   2
ATOM      2  N   LIG    1      -21.761  87.538  12.506  0.00  0.00    -0.293 N 
ATOM      3  C   LIG    1      -22.159  86.260  12.818  0.00  0.00    +0.162 A 
ATOM      4  N   LIG    1      -22.647  85.310  12.019  0.00  0.00    -0.235 NA
ATOM      5  C   LIG    1      -22.944  84.154  12.648  0.00  0.00    +0.121 A 
ATOM      6  C   LIG    1      -22.806  83.880  14.018  0.00  0.00    +0.002 A 
ATOM      7  C   LIG    1      -22.302  84.942  14.798  0.00  0.00    +0.041 A 
ATOM      8  C   LIG    1      -21.946  86.149  14.186  0.00  0.00    +0.110 A 
ATOM      9  N   LIG    1      -21.385  87.288  14.697  0.00  0.00    -0.213 NA
ATOM     10  C   LIG    1      -21.222  88.098  13.641  0.00  0.00    +0.195 A 
BRANCH   6  11
ATOM     11  C   LIG    1      -23.145  82.550  14.595  0.00  0.00    -0.016 A 
ATOM     12  C   LIG    1      -22.485  82.028  15.729  0.00  0.00    +0.011 A 
ATOM     13  C   LIG    1      -22.823  80.786  16.279  0.00  0.00    +0.039 A 
ATOM     14  C   LIG    1      -23.830  80.035  15.699  0.00  0.00    +0.123 A 
ATOM     15  F   LIG    1      -24.156  78.847  16.220  0.00  0.00    -0.205 F 
ATOM     16  C   LIG    1      -24.503  80.501  14.583  0.00  0.00    +0.039 A 
ATOM     17  C   LIG    1      -24.163  81.745  14.041  0.00  0.00    +0.011 A 
ENDBRANCH   6  11
BRANCH  10  18
ATOM     18  N   LIG    1      -20.625  89.279  13.689  0.00  0.00    -0.329 N 
ATOM     19  H   LIG    1      -21.263  90.062  13.575  0.00  0.00    +0.145 HD
ATOM     20  H   LIG    1      -19.983  89.470  14.468  0.00  0.00    +0.145 HD
ENDBRANCH  10  18
ENDBRANCH   1   2
BRANCH   1  24
ATOM     21  C   LIG    1      -24.689  91.535  10.959  0.00  0.00    +0.162 A 
ATOM     22  C   LIG    1      -23.358  91.667  10.469  0.00  0.00    +0.162 A 
ATOM     23  C   LIG    1      -22.523  90.539  10.558  0.00  0.00    +0.054 A 
ATOM     24  C   LIG    1      -22.846  89.394  11.276  0.00  0.00    -0.024 A 
ATOM     25  C   LIG    1      -24.093  89.321  11.856  0.00  0.00    +0.009 A 
ATOM     26  C   LIG    1      -25.003  90.349  11.648  0.00  0.00    +0.050 A 
BRANCH  22  27
ATOM     27  O   LIG    1      -22.828  92.826   9.926  0.00  0.00    -0.491 OA
ATOM     28  C   LIG    1      -21.391  93.003  10.088  0.00  0.00    +0.277 C 
ENDBRANCH  22  27
BRANCH  21  29
ATOM     29  O   LIG    1      -25.682  92.500  10.840  0.00  0.00    -0.484 OA
BRANCH  29  30
ATOM     30  C   LIG    1      -25.633  93.637  11.784  0.00  0.00    +0.266 C 
BRANCH  30  34
ATOM     31  C   LIG    1      -28.421  93.632  15.064  0.00  0.00    +0.214 A 
ATOM     32  N   LIG    1      -28.300  92.517  14.316  0.00  0.00    -0.221 NA
ATOM     33  C   LIG    1      -27.399  92.558  13.295  0.00  0.00    +0.121 A 
ATOM     34  C   LIG    1      -26.615  93.671  12.961  0.00  0.00    +0.008 A 
ATOM     35  C   LIG    1      -26.751  94.778  13.800  0.00  0.00    +0.013 A 
ATOM     36  C   LIG    1      -27.656  94.766  14.860  0.00  0.00    +0.067 A 
BRANCH  31  38
ATOM     37  C   LIG    1      -30.704  93.499  15.538  0.00  0.00    +0.279 C 
ATOM     38  O   LIG    1      -29.392  93.717  16.042  0.00  0.00    -0.480 OA
ENDBRANCH  31  38
ENDBRANCH  30  34
ENDBRANCH  29  30
ENDBRANCH  21  29
ENDBRANCH   1  24
TORSDOF 9
ENDMDL
MODEL 3
REMARK VINA RESULT:      -6.3      7.222     12.503
REMARK  Name = pdb/CHEMBL3673482.pdb
REMARK                            x       y       z     vdW  Elec       q    Type
REMARK                         _______ _______ _______ _____ _____    ______ ____
ROOT
ATOM      1  C   LIG    1      -28.918  74.391  32.698  0.00  0.00    +0.161 C 
ENDROOT
BRANCH   1   2
ATOM      2  N   LIG    1      -28.044  75.426  32.162  0.00  0.00    -0.293 N 
ATOM      3  C   LIG    1      -26.702  75.331  31.881  0.00  0.00    +0.162 A 
ATOM      4  N   LIG    1      -25.908  74.261  31.910  0.00  0.00    -0.235 NA
ATOM      5  C   LIG    1      -24.625  74.512  31.576  0.00  0.00    +0.121 A 
ATOM      6  C   LIG    1      -24.071  75.756  31.234  0.00  0.00    +0.002 A 
ATOM      7  C   LIG    1      -24.971  76.842  31.247  0.00  0.00    +0.041 A 
ATOM      8  C   LIG    1      -26.320  76.626  31.550  0.00  0.00    +0.110 A 
ATOM      9  N   LIG    1      -27.389  77.480  31.568  0.00  0.00    -0.213 NA
ATOM     10  C   LIG    1      -28.442  76.712  31.882  0.00  0.00    +0.195 A 
BRANCH   6  11
ATOM     11  C   LIG    1      -22.637  75.905  30.859  0.00  0.00    -0.016 A 
ATOM     12  C   LIG    1      -22.220  76.705  29.773  0.00  0.00    +0.011 A 
ATOM     13  C   LIG    1      -20.870  76.858  29.439  0.00  0.00    +0.039 A 
ATOM     14  C   LIG    1      -19.904  76.205  30.185  0.00  0.00    +0.123 A 
ATOM     15  F   LIG    1      -18.613  76.347  29.868  0.00  0.00    -0.205 F 
ATOM     16  C   LIG    1      -20.264  75.405  31.256  0.00  0.00    +0.039 A 
ATOM     17  C   LIG    1      -21.615  75.260  31.587  0.00  0.00    +0.011 A 
ENDBRANCH   6  11
BRANCH  10  18
ATOM     18  N   LIG    1      -29.695  77.139  31.918  0.00  0.00    -0.329 N 
ATOM     19  H   LIG    1      -29.952  77.571  32.801  0.00  0.00    +0.145 HD
ATOM     20  H   LIG    1      -30.035  77.719  31.141  0.00  0.00    +0.145 HD
ENDBRANCH  10  18
ENDBRANCH   1   2
BRANCH   1  24
ATOM     21  C   LIG    1      -30.472  71.356  30.022  0.00  0.00    +0.162 A 
ATOM     22  C   LIG    1      -29.287  71.120  30.775  0.00  0.00    +0.162 A 
ATOM     23  C   LIG    1      -28.866  72.137  31.650  0.00  0.00    +0.054 A 
ATOM     24  C   LIG    1      -29.405  73.417  31.663  0.00  0.00    -0.024 A 
ATOM     25  C   LIG    1      -30.477  73.679  30.838  0.00  0.00    +0.009 A 
ATOM     26  C   LIG    1      -31.022  72.650  30.083  0.00  0.00    +0.050 A 
BRANCH  22  27
ATOM     27  O   LIG    1      -28.519  69.970  30.699  0.00  0.00    -0.491 OA
ATOM     28  C   LIG    1      -27.235  70.109  30.023  0.00  0.00    +0.277 C 
ENDBRANCH  22  27
BRANCH  21  29
ATOM     29  O   LIG    1      -31.099  70.421  29.207  0.00  0.00    -0.484 OA
BRANCH  29  30
ATOM     30  C   LIG    1      -32.559  70.255  29.373  0.00  0.00    +0.266 C 
BRANCH  30  34
ATOM     31  C   LIG    1      -35.112  70.273  25.907  0.00  0.00    +0.214 A 
ATOM     32  N   LIG    1      -35.181  71.310  26.766  0.00  0.00    -0.221 NA
ATOM     33  C   LIG    1      -34.348  71.268  27.844  0.00  0.00    +0.121 A 
ATOM     34  C   LIG    1      -33.452  70.228  28.127  0.00  0.00    +0.008 A 
ATOM     35  C   LIG    1      -33.394  69.207  27.177  0.00  0.00    +0.013 A 
ATOM     36  C   LIG    1      -34.225  69.223  26.058  0.00  0.00    +0.067 A 
BRANCH  31  38
ATOM     37  C   LIG    1      -36.963  71.226  24.846  0.00  0.00    +0.279 C 
ATOM     38  O   LIG    1      -36.001  70.177  24.855  0.00  0.00    -0.480 OA
ENDBRANCH  31  38
ENDBRANCH  30  34
ENDBRANCH  29  30
ENDBRANCH  21  29
ENDBRANCH   1  24
TORSDOF 9
ENDMDL
MODEL 4
REMARK VINA RESULT:      -6.2      6.277      9.552
REMARK  Name = pdb/CHEMBL3673482.pdb
REMARK                            x       y       z     vdW  Elec       q    Type
REMARK                         _______ _______ _______ _____ _____    ______ ____
ROOT
ATOM      1  C   LIG    1      -36.770  67.276  24.620  0.00  0.00    +0.161 C 
ENDROOT
BRANCH   1   2
ATOM      2  N   LIG    1      -36.629  68.705  24.864  0.00  0.00    -0.293 N 
ATOM      3  C   LIG    1      -37.553  69.695  24.626  0.00  0.00    +0.162 A 
ATOM      4  N   LIG    1      -38.824  69.585  24.238  0.00  0.00    -0.235 NA
ATOM      5  C   LIG    1      -39.463  70.765  24.092  0.00  0.00    +0.121 A 
ATOM      6  C   LIG    1      -38.924  72.046  24.288  0.00  0.00    +0.002 A 
ATOM      7  C   LIG    1      -37.568  72.077  24.677  0.00  0.00    +0.041 A 
ATOM      8  C   LIG    1      -36.872  70.879  24.877  0.00  0.00    +0.110 A 
ATOM      9  N   LIG    1      -35.596  70.639  25.308  0.00  0.00    -0.213 NA
ATOM     10  C   LIG    1      -35.492  69.303  25.354  0.00  0.00    +0.195 A 
BRANCH   6  11
ATOM     11  C   LIG    1      -39.740  73.280  24.119  0.00  0.00    -0.016 A 
ATOM     12  C   LIG    1      -39.267  74.556  24.499  0.00  0.00    +0.011 A 
ATOM     13  C   LIG    1      -40.031  75.714  24.318  0.00  0.00    +0.039 A 
ATOM     14  C   LIG    1      -41.292  75.619  23.757  0.00  0.00    +0.123 A 
ATOM     15  F   LIG    1      -42.026  76.724  23.583  0.00  0.00    -0.205 F 
ATOM     16  C   LIG    1      -41.801  74.391  23.373  0.00  0.00    +0.039 A 
ATOM     17  C   LIG    1      -41.031  73.238  23.552  0.00  0.00    +0.011 A 
ENDBRANCH   6  11
BRANCH  10  18
ATOM     18  N   LIG    1      -34.433  68.651  25.808  0.00  0.00    -0.329 N 
ATOM     19  H   LIG    1      -33.690  69.261  26.138  0.00  0.00    +0.145 HD
ATOM     20  H   LIG    1      -34.580  67.893  26.486  0.00  0.00    +0.145 HD
ENDBRANCH  10  18
ENDBRANCH   1   2
BRANCH   1  24
ATOM     21  C   LIG    1      -34.944  66.361  20.797  0.00  0.00    +0.162 A 
ATOM     22  C   LIG    1      -36.262  66.896  20.861  0.00  0.00    +0.162 A 
ATOM     23  C   LIG    1      -36.773  67.203  22.135  0.00  0.00    +0.054 A 
ATOM     24  C   LIG    1      -36.163  66.822  23.324  0.00  0.00    -0.024 A 
ATOM     25  C   LIG    1      -34.941  66.190  23.254  0.00  0.00    +0.009 A 
ATOM     26  C   LIG    1      -34.332  66.020  22.017  0.00  0.00    +0.050 A 
BRANCH  22  27
ATOM     27  O   LIG    1      -37.077  67.124  19.764  0.00  0.00    -0.491 OA
ATOM     28  C   LIG    1      -37.616  68.472  19.642  0.00  0.00    +0.277 C 
ENDBRANCH  22  27
BRANCH  21  29
ATOM     29  O   LIG    1      -34.239  66.117  19.625  0.00  0.00    -0.484 OA
BRANCH  29  30
ATOM     30  C   LIG    1      -32.844  65.648  19.764  0.00  0.00    +0.266 C 
BRANCH  30  34
ATOM     31  C   LIG    1      -29.561  68.152  18.547  0.00  0.00    +0.214 A 
ATOM     32  N   LIG    1      -29.295  66.903  18.980  0.00  0.00    -0.221 NA
ATOM     33  C   LIG    1      -30.365  66.142  19.346  0.00  0.00    +0.121 A 
ATOM     34  C   LIG    1      -31.700  66.567  19.322  0.00  0.00    +0.008 A 
ATOM     35  C   LIG    1      -31.914  67.852  18.820  0.00  0.00    +0.013 A 
ATOM     36  C   LIG    1      -30.843  68.655  18.428  0.00  0.00    +0.067 A 
BRANCH  31  38
ATOM     37  C   LIG    1      -27.476  68.962  19.222  0.00  0.00    +0.279 C 
ATOM     38  O   LIG    1      -28.531  69.030  18.270  0.00  0.00    -0.480 OA
ENDBRANCH  31  38
ENDBRANCH  30  34
ENDBRANCH  29  30
ENDBRANCH  21  29
ENDBRANCH   1  24
TORSDOF 9
ENDMDL
MODEL 5
REMARK VINA RESULT:      -6.2      7.033      9.994
REMARK  Name = pdb/CHEMBL3673482.pdb
REMARK                            x       y       z     vdW  Elec       q    Type
REMARK                         _______ _______ _______ _____ _____    ______ ____
ROOT
ATOM      1  C   LIG    1      -36.313  65.880  22.635  0.00  0.00    +0.161 C 
ENDROOT
BRANCH   1   2
ATOM      2  N   LIG    1      -36.391  67.143  23.356  0.00  0.00    -0.293 N 
ATOM      3  C   LIG    1      -37.377  68.097  23.278  0.00  0.00    +0.162 A 
ATOM      4  N   LIG    1      -38.543  68.054  22.633  0.00  0.00    -0.235 NA
ATOM      5  C   LIG    1      -39.289  69.172  22.759  0.00  0.00    +0.121 A 
ATOM      6  C   LIG    1      -38.950  70.336  23.466  0.00  0.00    +0.002 A 
ATOM      7  C   LIG    1      -37.692  70.311  24.103  0.00  0.00    +0.041 A 
ATOM      8  C   LIG    1      -36.897  69.161  24.033  0.00  0.00    +0.110 A 
ATOM      9  N   LIG    1      -35.690  68.862  24.605  0.00  0.00    -0.213 NA
ATOM     10  C   LIG    1      -35.432  67.601  24.229  0.00  0.00    +0.195 A 
BRANCH   6  11
ATOM     11  C   LIG    1      -39.872  71.502  23.553  0.00  0.00    -0.016 A 
ATOM     12  C   LIG    1      -39.493  72.721  24.158  0.00  0.00    +0.011 A 
ATOM     13  C   LIG    1      -40.357  73.820  24.218  0.00  0.00    +0.039 A 
ATOM     14  C   LIG    1      -41.627  73.720  23.677  0.00  0.00    +0.123 A 
ATOM     15  F   LIG    1      -42.456  74.768  23.733  0.00  0.00    -0.205 F 
ATOM     16  C   LIG    1      -42.046  72.545  23.078  0.00  0.00    +0.039 A 
ATOM     17  C   LIG    1      -41.176  71.452  23.017  0.00  0.00    +0.011 A 
ENDBRANCH   6  11
BRANCH  10  18
ATOM     18  N   LIG    1      -34.391  66.896  24.644  0.00  0.00    -0.329 N 
ATOM     19  H   LIG    1      -33.824  66.523  23.887  0.00  0.00    +0.145 HD
ATOM     20  H   LIG    1      -33.778  67.305  25.361  0.00  0.00    +0.145 HD
ENDBRANCH  10  18
ENDBRANCH   1   2
BRANCH   1  24
ATOM     21  C   LIG    1      -33.920  66.488  19.072  0.00  0.00    +0.162 A 
ATOM     22  C   LIG    1      -35.313  66.786  19.069  0.00  0.00    +0.162 A 
ATOM     23  C   LIG    1      -36.015  66.599  20.273  0.00  0.00    +0.054 A 
ATOM     24  C   LIG    1      -35.487  65.950  21.383  0.00  0.00    -0.024 A 
ATOM     25  C   LIG    1      -34.169  65.550  21.336  0.00  0.00    +0.009 A 
ATOM     26  C   LIG    1      -33.400  65.868  20.223  0.00  0.00    +0.050 A 
BRANCH  22  27
ATOM     27  O   LIG    1      -36.023  67.232  17.967  0.00  0.00    -0.491 OA
ATOM     28  C   LIG    1      -37.472  67.124  18.060  0.00  0.00    +0.277 C 
ENDBRANCH  22  27
BRANCH  21  29
ATOM     29  O   LIG    1      -33.051  66.730  18.016  0.00  0.00    -0.484 OA
BRANCH  29  30
ATOM     30  C   LIG    1      -32.580  68.119  17.835  0.00  0.00    +0.266 C 
BRANCH  30  34
ATOM     31  C   LIG    1      -28.546  69.036  19.022  0.00  0.00    +0.214 A 
ATOM     32  N   LIG    1      -28.892  67.744  18.852  0.00  0.00    -0.221 NA
ATOM     33  C   LIG    1      -30.175  67.500  18.466  0.00  0.00    +0.121 A 
ATOM     34  C   LIG    1      -31.152  68.484  18.256  0.00  0.00    +0.008 A 
ATOM     35  C   LIG    1      -30.720  69.803  18.402  0.00  0.00    +0.013 A 
ATOM     36  C   LIG    1      -29.411  70.089  18.787  0.00  0.00    +0.067 A 
BRANCH  31  38
ATOM     37  C   LIG    1      -26.615  70.316  18.718  0.00  0.00    +0.279 C 
ATOM     38  O   LIG    1      -27.302  69.367  19.525  0.00  0.00    -0.480 OA
ENDBRANCH  31  38
ENDBRANCH  30  34
ENDBRANCH  29  30
ENDBRANCH  21  29
ENDBRANCH   1  24
TORSDOF 9
ENDMDL
MODEL 6
REMARK VINA RESULT:      -6.1      5.903      9.060
REMARK  Name = pdb/CHEMBL3673482.pdb
REMARK                            x       y       z     vdW  Elec       q    Type
REMARK                         _______ _______ _______ _____ _____    ______ ____
ROOT
ATOM      1  C   LIG    1      -40.231  82.004  26.072  0.00  0.00    +0.161 C 
ENDROOT
BRANCH   1   2
ATOM      2  N   LIG    1      -39.997  81.042  25.004  0.00  0.00    -0.293 N 
ATOM      3  C   LIG    1      -39.946  79.672  25.102  0.00  0.00    +0.162 A 
ATOM      4  N   LIG    1      -40.213  78.891  26.149  0.00  0.00    -0.235 NA
ATOM      5  C   LIG    1      -40.063  77.571  25.910  0.00  0.00    +0.121 A 
ATOM      6  C   LIG    1      -39.648  76.974  24.710  0.00  0.00    +0.002 A 
ATOM      7  C   LIG    1      -39.364  77.868  23.657  0.00  0.00    +0.041 A 
ATOM      8  C   LIG    1      -39.540  79.244  23.844  0.00  0.00    +0.110 A 
ATOM      9  N   LIG    1      -39.400  80.297  22.981  0.00  0.00    -0.213 NA
ATOM     10  C   LIG    1      -39.747  81.378  23.694  0.00  0.00    +0.195 A 
BRANCH   6  11
ATOM     11  C   LIG    1      -39.542  75.496  24.560  0.00  0.00    -0.016 A 
ATOM     12  C   LIG    1      -40.564  74.723  23.964  0.00  0.00    +0.011 A 
ATOM     13  C   LIG    1      -40.449  73.337  23.807  0.00  0.00    +0.039 A 
ATOM     14  C   LIG    1      -39.308  72.692  24.250  0.00  0.00    +0.123 A 
ATOM     15  F   LIG    1      -39.195  71.367  24.102  0.00  0.00    -0.205 F 
ATOM     16  C   LIG    1      -38.282  73.406  24.844  0.00  0.00    +0.039 A 
ATOM     17  C   LIG    1      -38.401  74.791  24.994  0.00  0.00    +0.011 A 
ENDBRANCH   6  11
BRANCH  10  18
ATOM     18  N   LIG    1      -39.833  82.604  23.201  0.00  0.00    -0.329 N 
ATOM     19  H   LIG    1      -39.026  83.185  23.412  0.00  0.00    +0.145 HD
ATOM     20  H   LIG    1      -40.085  82.715  22.211  0.00  0.00    +0.145 HD
ENDBRANCH  10  18
ENDBRANCH   1   2
BRANCH   1  24
ATOM     21  C   LIG    1      -36.576  84.239  26.730  0.00  0.00    +0.162 A 
ATOM     22  C   LIG    1      -36.611  82.830  26.935  0.00  0.00    +0.162 A 
ATOM     23  C   LIG    1      -37.822  82.169  26.664  0.00  0.00    +0.054 A 
ATOM     24  C   LIG    1      -39.023  82.824  26.421  0.00  0.00    -0.024 A 
ATOM     25  C   LIG    1      -39.008  84.200  26.347  0.00  0.00    +0.009 A 
ATOM     26  C   LIG    1      -37.798  84.874  26.444  0.00  0.00    +0.050 A 
BRANCH  22  27
ATOM     27  O   LIG    1      -35.545  82.072  27.390  0.00  0.00    -0.491 OA
ATOM     28  C   LIG    1      -35.865  81.065  28.393  0.00  0.00    +0.277 C 
ENDBRANCH  22  27
BRANCH  21  29
ATOM     29  O   LIG    1      -35.438  85.031  26.826  0.00  0.00    -0.484 OA
BRANCH  29  30
ATOM     30  C   LIG    1      -35.274  85.826  28.062  0.00  0.00    +0.266 C 
BRANCH  30  34
ATOM     31  C   LIG    1      -32.253  84.650  30.894  0.00  0.00    +0.214 A 
ATOM     32  N   LIG    1      -33.373  83.905  30.797  0.00  0.00    -0.221 NA
ATOM     33  C   LIG    1      -34.298  84.307  29.880  0.00  0.00    +0.121 A 
ATOM     34  C   LIG    1      -34.176  85.436  29.058  0.00  0.00    +0.008 A 
ATOM     35  C   LIG    1      -32.975  86.138  29.173  0.00  0.00    +0.013 A 
ATOM     36  C   LIG    1      -32.003  85.749  30.093  0.00  0.00    +0.067 A 
BRANCH  31  38
ATOM     37  C   LIG    1      -31.563  85.100  33.080  0.00  0.00    +0.279 C 
ATOM     38  O   LIG    1      -31.319  84.383  31.876  0.00  0.00    -0.480 OA
ENDBRANCH  31  38
ENDBRANCH  30  34
ENDBRANCH  29  30
ENDBRANCH  21  29
ENDBRANCH   1  24
TORSDOF 9
ENDMDL
MODEL 7
REMARK VINA RESULT:      -6.1      7.130     11.507
REMARK  Name = pdb/CHEMBL3673482.pdb
REMARK                            x       y       z     vdW  Elec       q    Type
REMARK                         _______ _______ _______ _____ _____    ______ ____
ROOT
ATOM      1  C   LIG    1      -28.915  73.885  32.589  0.00  0.00    +0.161 C 
ENDROOT
BRANCH   1   2
ATOM      2  N   LIG    1      -27.630  73.348  32.160  0.00  0.00    -0.293 N 
ATOM      3  C   LIG    1      -26.477  74.045  31.887  0.00  0.00    +0.162 A 
ATOM      4  N   LIG    1      -26.213  75.340  32.061  0.00  0.00    -0.235 NA
ATOM      5  C   LIG    1      -24.970  75.709  31.686  0.00  0.00    +0.121 A 
ATOM      6  C   LIG    1      -23.977  74.885  31.135  0.00  0.00    +0.002 A 
ATOM      7  C   LIG    1      -24.341  73.532  30.963  0.00  0.00    +0.041 A 
ATOM      8  C   LIG    1      -25.606  73.094  31.371  0.00  0.00    +0.110 A 
ATOM      9  N   LIG    1      -26.170  71.847  31.374  0.00  0.00    -0.213 NA
ATOM     10  C   LIG    1      -27.383  72.017  31.920  0.00  0.00    +0.195 A 
BRANCH   6  11
ATOM     11  C   LIG    1      -22.627  75.405  30.782  0.00  0.00    -0.016 A 
ATOM     12  C   LIG    1      -22.420  76.304  29.712  0.00  0.00    +0.011 A 
ATOM     13  C   LIG    1      -21.152  76.805  29.398  0.00  0.00    +0.039 A 
ATOM     14  C   LIG    1      -20.058  76.410  30.148  0.00  0.00    +0.123 A 
ATOM     15  F   LIG    1      -18.844  76.887  29.851  0.00  0.00    -0.205 F 
ATOM     16  C   LIG    1      -20.209  75.528  31.203  0.00  0.00    +0.039 A 
ATOM     17  C   LIG    1      -21.480  75.034  31.514  0.00  0.00    +0.011 A 
ENDBRANCH   6  11
BRANCH  10  18
ATOM     18  N   LIG    1      -28.227  71.033  32.189  0.00  0.00    -0.329 N 
ATOM     19  H   LIG    1      -27.992  70.514  33.031  0.00  0.00    +0.145 HD
ATOM     20  H   LIG    1      -29.234  71.238  32.183  0.00  0.00    +0.145 HD
ENDBRANCH  10  18
ENDBRANCH   1   2
BRANCH   1  24
ATOM     21  C   LIG    1      -31.702  75.256  29.566  0.00  0.00    +0.162 A 
ATOM     22  C   LIG    1      -31.544  73.865  29.828  0.00  0.00    +0.162 A 
ATOM     23  C   LIG    1      -30.649  73.499  30.850  0.00  0.00    +0.054 A 
ATOM     24  C   LIG    1      -29.768  74.385  31.458  0.00  0.00    -0.024 A 
ATOM     25  C   LIG    1      -29.839  75.715  31.110  0.00  0.00    +0.009 A 
ATOM     26  C   LIG    1      -30.825  76.136  30.226  0.00  0.00    +0.050 A 
BRANCH  22  27
ATOM     27  O   LIG    1      -32.197  72.853  29.144  0.00  0.00    -0.491 OA
ATOM     28  C   LIG    1      -32.647  71.728  29.954  0.00  0.00    +0.277 C 
ENDBRANCH  22  27
BRANCH  21  29
ATOM     29  O   LIG    1      -32.628  75.801  28.685  0.00  0.00    -0.484 OA
BRANCH  29  30
ATOM     30  C   LIG    1      -32.237  77.039  27.978  0.00  0.00    +0.266 C 
BRANCH  30  34
ATOM     31  C   LIG    1      -34.731  80.542  28.174  0.00  0.00    +0.214 A 
ATOM     32  N   LIG    1      -33.955  80.361  27.087  0.00  0.00    -0.221 NA
ATOM     33  C   LIG    1      -33.189  79.234  27.061  0.00  0.00    +0.121 A 
ATOM     34  C   LIG    1      -33.139  78.274  28.082  0.00  0.00    +0.008 A 
ATOM     35  C   LIG    1      -34.000  78.493  29.158  0.00  0.00    +0.013 A 
ATOM     36  C   LIG    1      -34.804  79.631  29.212  0.00  0.00    +0.067 A 
BRANCH  31  38
ATOM     37  C   LIG    1      -36.573  81.557  29.193  0.00  0.00    +0.279 C 
ATOM     38  O   LIG    1      -35.448  81.712  28.335  0.00  0.00    -0.480 OA
ENDBRANCH  31  38
ENDBRANCH  30  34
ENDBRANCH  29  30
ENDBRANCH  21  29
ENDBRANCH   1  24
TORSDOF 9
ENDMDL
MODEL 8
REMARK VINA RESULT:      -6.1      6.368      9.472
REMARK  Name = pdb/CHEMBL3673482.pdb
REMARK                            x       y       z     vdW  Elec       q    Type
REMARK                         _______ _______ _______ _____ _____    ______ ____
ROOT
ATOM      1  C   LIG    1      -39.726  82.311  26.131  0.00  0.00    +0.161 C 
ENDROOT
BRANCH   1   2
ATOM      2  N   LIG    1      -39.676  81.356  25.032  0.00  0.00    -0.293 N 
ATOM      3  C   LIG    1      -39.696  79.984  25.109  0.00  0.00    +0.162 A 
ATOM      4  N   LIG    1      -39.884  79.202  26.172  0.00  0.00    -0.235 NA
ATOM      5  C   LIG    1      -39.842  77.880  25.902  0.00  0.00    +0.121 A 
ATOM      6  C   LIG    1      -39.608  77.281  24.655  0.00  0.00    +0.002 A 
ATOM      7  C   LIG    1      -39.397  78.176  23.585  0.00  0.00    +0.041 A 
ATOM      8  C   LIG    1      -39.467  79.556  23.807  0.00  0.00    +0.110 A 
ATOM      9  N   LIG    1      -39.368  80.615  22.945  0.00  0.00    -0.213 NA
ATOM     10  C   LIG    1      -39.563  81.701  23.706  0.00  0.00    +0.195 A 
BRANCH   6  11
ATOM     11  C   LIG    1      -39.608  75.802  24.477  0.00  0.00    -0.016 A 
ATOM     12  C   LIG    1      -38.544  74.988  24.923  0.00  0.00    +0.011 A 
ATOM     13  C   LIG    1      -38.561  73.597  24.771  0.00  0.00    +0.039 A 
ATOM     14  C   LIG    1      -39.645  72.989  24.163  0.00  0.00    +0.123 A 
ATOM     15  F   LIG    1      -39.664  71.660  24.015  0.00  0.00    -0.205 F 
ATOM     16  C   LIG    1      -40.709  73.746  23.705  0.00  0.00    +0.039 A 
ATOM     17  C   LIG    1      -40.689  75.135  23.863  0.00  0.00    +0.011 A 
ENDBRANCH   6  11
BRANCH  10  18
ATOM     18  N   LIG    1      -39.633  82.938  23.239  0.00  0.00    -0.329 N 
ATOM     19  H   LIG    1      -40.518  83.398  23.438  0.00  0.00    +0.145 HD
ATOM     20  H   LIG    1      -38.859  83.582  23.444  0.00  0.00    +0.145 HD
ENDBRANCH  10  18
ENDBRANCH   1   2
BRANCH   1  24
ATOM     21  C   LIG    1      -36.019  83.416  28.087  0.00  0.00    +0.162 A 
ATOM     22  C   LIG    1      -36.372  83.983  26.829  0.00  0.00    +0.162 A 
ATOM     23  C   LIG    1      -37.608  83.605  26.275  0.00  0.00    +0.054 A 
ATOM     24  C   LIG    1      -38.390  82.568  26.768  0.00  0.00    -0.024 A 
ATOM     25  C   LIG    1      -37.979  81.935  27.921  0.00  0.00    +0.009 A 
ATOM     26  C   LIG    1      -36.850  82.396  28.584  0.00  0.00    +0.050 A 
BRANCH  22  27
ATOM     27  O   LIG    1      -35.583  84.867  26.112  0.00  0.00    -0.491 OA
ATOM     28  C   LIG    1      -36.284  85.707  25.150  0.00  0.00    +0.277 C 
ENDBRANCH  22  27
BRANCH  21  29
ATOM     29  O   LIG    1      -34.902  83.768  28.835  0.00  0.00    -0.484 OA
BRANCH  29  30
ATOM     30  C   LIG    1      -34.894  85.118  29.438  0.00  0.00    +0.266 C 
BRANCH  30  34
ATOM     31  C   LIG    1      -31.078  86.917  30.294  0.00  0.00    +0.214 A 
ATOM     32  N   LIG    1      -31.196  85.577  30.388  0.00  0.00    -0.221 NA
ATOM     33  C   LIG    1      -32.419  85.049  30.098  0.00  0.00    +0.121 A 
ATOM     34  C   LIG    1      -33.550  85.794  29.734  0.00  0.00    +0.008 A 
ATOM     35  C   LIG    1      -33.351  87.170  29.609  0.00  0.00    +0.013 A 
ATOM     36  C   LIG    1      -32.111  87.742  29.889  0.00  0.00    +0.067 A 
BRANCH  31  38
ATOM     37  C   LIG    1      -29.836  87.751  32.089  0.00  0.00    +0.279 C 
ATOM     38  O   LIG    1      -29.910  87.545  30.683  0.00  0.00    -0.480 OA
ENDBRANCH  31  38
ENDBRANCH  30  34
ENDBRANCH  29  30
ENDBRANCH  21  29
ENDBRANCH   1  24
TORSDOF 9
ENDMDL
MODEL 9
REMARK VINA RESULT:      -6.0     17.039     19.392
REMARK  Name = pdb/CHEMBL3673482.pdb
REMARK                            x       y       z     vdW  Elec       q    Type
REMARK                         _______ _______ _______ _____ _____    ______ ____
ROOT
ATOM      1  C   LIG    1      -28.567  77.368  10.226  0.00  0.00    +0.161 C 
ENDROOT
BRANCH   1   2
ATOM      2  N   LIG    1      -28.114  77.400  11.610  0.00  0.00    -0.293 N 
ATOM      3  C   LIG    1      -27.182  78.241  12.171  0.00  0.00    +0.162 A 
ATOM      4  N   LIG    1      -26.565  79.294  11.634  0.00  0.00    -0.235 NA
ATOM      5  C   LIG    1      -25.696  79.910  12.462  0.00  0.00    +0.121 A 
ATOM      6  C   LIG    1      -25.384  79.544  13.780  0.00  0.00    +0.002 A 
ATOM      7  C   LIG    1      -26.063  78.407  14.268  0.00  0.00    +0.041 A 
ATOM      8  C   LIG    1      -27.001  77.755  13.460  0.00  0.00    +0.110 A 
ATOM      9  N   LIG    1      -27.826  76.693  13.713  0.00  0.00    -0.213 NA
ATOM     10  C   LIG    1      -28.542  76.535  12.590  0.00  0.00    +0.195 A 
BRANCH   6  11
ATOM     11  C   LIG    1      -24.420  80.321  14.608  0.00  0.00    -0.016 A 
ATOM     12  C   LIG    1      -24.179  81.696  14.394  0.00  0.00    +0.011 A 
ATOM     13  C   LIG    1      -23.288  82.426  15.189  0.00  0.00    +0.039 A 
ATOM     14  C   LIG    1      -22.611  81.790  16.215  0.00  0.00    +0.123 A 
ATOM     15  F   LIG    1      -21.758  82.484  16.977  0.00  0.00    -0.205 F 
ATOM     16  C   LIG    1      -22.810  80.443  16.460  0.00  0.00    +0.039 A 
ATOM     17  C   LIG    1      -23.705  79.720  15.665  0.00  0.00    +0.011 A 
ENDBRANCH   6  11
BRANCH  10  18
ATOM     18  N   LIG    1      -29.526  75.661  12.447  0.00  0.00    -0.329 N 
ATOM     19  H   LIG    1      -29.213  74.693  12.441  0.00  0.00    +0.145 HD
ATOM     20  H   LIG    1      -30.350  75.750  13.054  0.00  0.00    +0.145 HD
ENDBRANCH  10  18
ENDBRANCH   1   2
BRANCH   1  24
ATOM     21  C   LIG    1      -31.765  80.255   9.750  0.00  0.00    +0.162 A 
ATOM     22  C   LIG    1      -32.058  78.882   9.994  0.00  0.00    +0.162 A 
ATOM     23  C   LIG    1      -30.968  78.013  10.176  0.00  0.00    +0.054 A 
ATOM     24  C   LIG    1      -29.648  78.365   9.922  0.00  0.00    -0.024 A 
ATOM     25  C   LIG    1      -29.381  79.668   9.563  0.00  0.00    +0.009 A 
ATOM     26  C   LIG    1      -30.417  80.593   9.537  0.00  0.00    +0.050 A 
BRANCH  22  27
ATOM     27  O   LIG    1      -33.333  78.345  10.054  0.00  0.00    -0.491 OA
ATOM     28  C   LIG    1      -33.426  76.907   9.843  0.00  0.00    +0.277 C 
ENDBRANCH  22  27
BRANCH  21  29
ATOM     29  O   LIG    1      -32.710  81.270   9.671  0.00  0.00    -0.484 OA
BRANCH  29  30
ATOM     30  C   LIG    1      -33.387  81.659  10.927  0.00  0.00    +0.266 C 
BRANCH  30  34
ATOM     31  C   LIG    1      -34.825  85.686  11.427  0.00  0.00    +0.214 A 
ATOM     32  N   LIG    1      -35.697  84.666  11.565  0.00  0.00    -0.221 NA
ATOM     33  C   LIG    1      -35.197  83.408  11.409  0.00  0.00    +0.121 A 
ATOM     34  C   LIG    1      -33.863  83.106  11.099  0.00  0.00    +0.008 A 
ATOM     35  C   LIG    1      -33.001  84.201  11.016  0.00  0.00    +0.013 A 
ATOM     36  C   LIG    1      -33.477  85.501  11.180  0.00  0.00    +0.067 A 
BRANCH  31  38
ATOM     37  C   LIG    1      -34.646  87.807  10.466  0.00  0.00    +0.279 C 
ATOM     38  O   LIG    1      -35.269  86.993  11.452  0.00  0.00    -0.480 OA
ENDBRANCH  31  38
ENDBRANCH  30  34
ENDBRANCH  29  30
ENDBRANCH  21  29
ENDBRANCH   1  24
TORSDOF 9
ENDMDL
